*SPEF "ieee 1481-1999"
*DESIGN "sbox_aesinv"
*DATE "08:13:28 Tuesday July 07, 2026"
*VENDOR "The OpenROAD Project"
*PROGRAM "OpenROAD"
*VERSION "26Q1-1392-g93cb34c5d4"
*DESIGN_FLOW "NAME_SCOPE LOCAL" "PIN_CAP NONE"
*DIVIDER /
*DELIMITER :
*BUS_DELIMITER []
*T_UNIT 1 NS
*C_UNIT 1 PF
*R_UNIT 1 OHM
*L_UNIT 1 HENRY

*NAME_MAP
*2 _0001_
*4 _0003_
*5 _0004_
*7 _0006_
*8 _0007_
*9 clknet_1_1__leaf_clk
*10 _0009_
*11 clknet_1_0__leaf_clk
*12 _0011_
*13 _0012_
*14 _0013_
*15 _0014_
*16 _0015_
*17 net32
*18 _0017_
*19 net31
*20 _0019_
*21 _0020_
*22 _0021_
*23 net28
*24 _0023_
*25 _0024_
*26 _0025_
*27 clknet_0_clk
*28 _0027_
*29 _0028_
*30 net30
*31 _0030_
*32 _0031_
*33 _0032_
*34 _0033_
*35 net29
*36 _0035_
*37 _0036_
*38 _0037_
*39 _0038_
*40 _0039_
*41 _0040_
*42 _0041_
*43 _0042_
*44 _0043_
*45 _0044_
*46 _0045_
*47 _0046_
*48 y[7]
*49 _0048_
*50 _0049_
*51 _0050_
*52 _0051_
*53 _0052_
*54 _0053_
*55 _0054_
*56 y[6]
*57 _0056_
*58 y[5]
*59 _0058_
*60 _0059_
*61 _0060_
*62 _0061_
*63 _0062_
*64 _0063_
*65 _0064_
*66 _0065_
*67 _0066_
*68 _0067_
*69 y[4]
*70 _0069_
*72 _0071_
*73 _0072_
*74 _0073_
*75 _0074_
*76 _0075_
*77 _0076_
*78 _0077_
*79 _0078_
*80 _0079_
*82 _0081_
*83 _0082_
*84 _0083_
*85 _0084_
*86 y[3]
*87 _0086_
*88 _0087_
*89 _0088_
*90 _0089_
*91 _0090_
*92 _0091_
*93 _0092_
*94 _0093_
*95 _0094_
*96 _0095_
*97 _0096_
*98 _0097_
*99 _0098_
*100 _0099_
*101 _0100_
*102 _0101_
*104 _0103_
*105 _0104_
*106 _0105_
*107 _0106_
*108 _0107_
*109 _0108_
*110 _0109_
*111 _0110_
*112 _0111_
*113 _0112_
*115 _0114_
*116 y[2]
*117 _0116_
*118 _0117_
*119 y[1]
*120 _0119_
*121 _0120_
*122 _0121_
*123 _0122_
*124 _0123_
*126 _0125_
*127 y[0]
*128 _0127_
*129 cy[7]
*130 _0129_
*131 _0130_
*132 _0131_
*133 _0132_
*134 _0133_
*135 _0134_
*137 _0136_
*138 _0137_
*139 _0138_
*140 _0139_
*141 _0140_
*142 _0141_
*143 cy[6]
*144 _0143_
*145 _0144_
*146 _0145_
*148 _0147_
*149 cy[5]
*150 _0149_
*151 _0150_
*152 _0151_
*153 _0152_
*154 _0153_
*155 _0154_
*156 _0155_
*157 _0156_
*159 _0158_
*160 cy[4]
*161 _0160_
*162 _0161_
*163 _0162_
*164 _0163_
*165 _0164_
*166 _0165_
*167 cy[3]
*168 _0167_
*169 _0168_
*170 _0169_
*171 _0170_
*172 _0171_
*173 _0172_
*174 _0173_
*175 _0174_
*176 _0175_
*177 _0176_
*178 _0177_
*180 _0179_
*181 _0180_
*182 cy[2]
*183 _0182_
*184 _0183_
*185 _0184_
*186 _0185_
*187 _0186_
*188 _0187_
*189 _0188_
*191 _0190_
*192 _0191_
*193 _0192_
*194 _0193_
*195 _0194_
*196 _0195_
*197 _0196_
*198 _0197_
*199 _0198_
*200 _0199_
*202 _0201_
*203 cy[1]
*204 _0203_
*205 _0204_
*206 _0205_
*207 _0206_
*208 _0207_
*209 _0208_
*210 _0209_
*211 _0210_
*213 _0212_
*214 _0213_
*215 _0214_
*216 _0215_
*217 _0216_
*218 _0217_
*219 _0218_
*220 _0219_
*221 _0220_
*222 _0221_
*223 _0222_
*224 _0223_
*225 _0224_
*226 _0225_
*227 _0226_
*228 _0227_
*229 _0228_
*230 _0229_
*231 _0230_
*232 _0231_
*234 _0233_
*235 _0234_
*236 _0235_
*237 _0236_
*238 _0237_
*239 _0238_
*240 _0239_
*241 _0240_
*242 _0241_
*243 _0242_
*244 _0243_
*245 _0244_
*246 _0245_
*247 _0246_
*248 _0247_
*249 _0248_
*250 _0249_
*251 _0250_
*252 cy[0]
*253 _0252_
*254 _0253_
*255 _0254_
*256 _0255_
*257 _0256_
*258 _0257_
*259 _0258_
*260 _0259_
*261 _0260_
*262 _0261_
*263 _0262_
*264 _0263_
*265 _0264_
*267 _0266_
*268 _0267_
*269 _0268_
*270 _0269_
*271 _0270_
*272 _0271_
*273 _0272_
*274 _0273_
*275 _0274_
*276 _0275_
*278 _0277_
*279 _0278_
*280 _0279_
*281 _0280_
*282 _0281_
*283 _0282_
*284 _0283_
*285 _0284_
*286 _0285_
*287 _0286_
*289 _0288_
*290 _0289_
*291 _0290_
*292 _0291_
*293 _0292_
*294 _0293_
*295 _0294_
*296 _0295_
*297 _0296_
*298 _0297_
*299 _0298_
*300 _0299_
*301 _0300_
*302 _0301_
*303 _0302_
*304 _0303_
*305 _0304_
*306 _0305_
*307 _0306_
*308 _0307_
*309 _0308_
*310 _0309_
*311 _0310_
*312 _0311_
*313 _0312_
*314 _0313_
*315 _0314_
*316 _0315_
*317 _0316_
*318 _0317_
*319 _0318_
*320 _0319_
*321 _0320_
*322 _0321_
*323 _0322_
*324 _0323_
*325 _0324_
*326 _0325_
*327 _0326_
*328 _0327_
*329 _0328_
*330 _0329_
*332 _0331_
*333 _0332_
*334 _0333_
*335 _0334_
*336 _0335_
*337 _0336_
*338 _0337_
*339 _0338_
*340 _0339_
*342 _0341_
*343 _0342_
*344 _0343_
*345 _0344_
*346 _0345_
*347 _0346_
*348 _0347_
*349 _0348_
*350 _0349_
*351 _0350_
*353 _0352_
*354 _0353_
*355 _0354_
*356 _0355_
*357 _0356_
*358 _0357_
*359 _0358_
*360 _0359_
*361 _0360_
*362 _0361_
*364 _0363_
*365 _0364_
*366 _0365_
*367 _0366_
*368 _0367_
*369 _0368_
*370 _0369_
*371 _0370_
*372 _0371_
*373 _0372_
*374 _0373_
*375 _0374_
*376 _0375_
*377 _0376_
*378 _0377_
*379 _0378_
*380 _0379_
*381 _0380_
*382 _0381_
*383 _0382_
*384 _0383_
*386 _0385_
*387 _0386_
*388 _0387_
*389 _0388_
*390 _0389_
*391 _0390_
*392 _0391_
*393 _0392_
*394 _0393_
*396 _0395_
*397 _0396_
*398 _0397_
*399 _0398_
*400 _0399_
*401 _0400_
*402 _0401_
*403 _0402_
*404 _0403_
*405 _0404_
*407 _0406_
*408 _0407_
*409 _0408_
*410 _0409_
*411 _0410_
*412 _0411_
*413 _0412_
*414 _0413_
*415 _0414_
*416 _0415_
*418 _0417_
*419 _0418_
*420 _0419_
*421 _0420_
*422 _0421_
*423 _0422_
*424 _0423_
*425 _0424_
*426 _0425_
*427 _0426_
*429 _0428_
*430 _0429_
*431 _0430_
*432 _0431_
*433 _0432_
*434 _0433_
*435 _0434_
*436 _0435_
*437 _0436_
*438 _0437_
*439 _0438_
*440 _0439_
*441 _0440_
*442 _0441_
*443 _0442_
*444 _0443_
*445 _0444_
*446 _0445_
*447 _0446_
*448 _0447_
*449 _0448_
*450 _0449_
*451 _0450_
*452 _0451_
*453 _0452_
*454 _0453_
*455 _0454_
*456 _0455_
*457 _0456_
*458 _0457_
*459 _0458_
*461 _0460_
*462 _0461_
*463 _0462_
*464 _0463_
*465 _0464_
*466 _0465_
*467 _0466_
*468 _0467_
*469 _0468_
*470 _0469_
*473 _0472_
*476 _0475_
*479 _0478_
*480 _0479_
*481 _0480_
*482 _0481_
*483 _0482_
*485 _0484_
*486 _0485_
*487 _0486_
*489 _0488_
*490 _0489_
*495 _0494_
*496 _0495_
*497 _0496_
*498 _0497_
*499 _0498_
*500 _0499_
*501 _0500_
*503 _0502_
*504 _0503_
*506 _0505_
*507 _0506_
*508 _0507_
*510 _0509_
*511 _0510_
*512 _0511_
*513 _0512_
*515 _0514_
*516 _0515_
*517 clk
*518 net9
*519 net10
*520 net11
*521 net12
*522 net13
*523 net14
*524 net15
*525 net16
*526 x[7]
*527 x[6]
*528 x[5]
*529 x[4]
*530 x[3]
*531 x[2]
*532 x[1]
*533 x[0]
*534 net1
*535 net2
*536 net3
*537 net4
*538 net5
*539 net6
*540 net7
*541 net8
*542 net17
*543 net18
*544 net19
*545 net20
*546 net21
*547 net22
*548 net23
*549 net24
*550 FILLER_0_269
*551 FILLER_0_265
*552 _0518_
*553 FILLER_0_257
*554 FILLER_0_249
*555 FILLER_0_241
*556 FILLER_0_239
*557 FILLER_0_235
*558 FILLER_0_227
*559 _0525_
*560 FILLER_0_219
*561 FILLER_0_211
*562 FILLER_0_208
*563 FILLER_0_200
*564 _0530_
*565 FILLER_0_192
*566 _0532_
*567 _0533_
*568 FILLER_0_183
*569 FILLER_0_181
*570 FILLER_0_179
*571 _0537_
*572 _0538_
*573 _0539_
*574 FILLER_0_175
*575 FILLER_0_167
*576 FILLER_0_159
*577 FILLER_0_151
*578 _0544_
*579 FILLER_0_149
*580 FILLER_0_145
*581 FILLER_0_137
*582 FILLER_0_129
*583 FILLER_0_121
*584 _0550_
*585 _0551_
*586 FILLER_0_119
*587 FILLER_0_115
*588 FILLER_0_107
*589 _0555_
*590 FILLER_0_99
*591 FILLER_0_91
*592 _0558_
*593 FILLER_0_89
*594 FILLER_0_85
*595 _0561_
*596 _0562_
*597 _0563_
*598 _0564_
*599 _0565_
*600 FILLER_0_77
*601 _0567_
*602 _0568_
*603 _0569_
*604 FILLER_0_69
*605 _0571_
*606 _0572_
*607 FILLER_0_61
*608 FILLER_0_59
*609 FILLER_0_55
*610 FILLER_0_47
*611 _0577_
*612 _0578_
*613 _0579_
*614 _0580_
*615 _0581_
*616 _0582_
*617 _0583_
*618 FILLER_0_39
*619 _0585_
*620 _0586_
*621 FILLER_0_31
*622 _0588_
*623 _0589_
*624 _0590_
*625 FILLER_0_28
*626 _0592_
*627 _0593_
*628 _0594_
*629 _0595_
*630 FILLER_0_24
*631 _0597_
*632 _0598_
*633 FILLER_0_16
*634 _0600_
*635 FILLER_0_8
*636 _0602_
*637 _0603_
*638 FILLER_0_0
*639 _0605_
*640 _0606_
*641 clkbuf_1_1__f_clk
*642 _0608_
*643 clkbuf_1_0__f_clk
*644 _0610_
*645 _0611_
*646 _0612_
*647 _0613_
*648 _0614_
*649 place32
*650 _0616_
*651 place31
*652 _0618_
*653 _0619_
*654 _0620_
*655 place28
*656 _0622_
*657 _0623_
*658 _0624_
*659 clkbuf_0_clk
*660 _0626_
*661 _0627_
*662 place30
*663 _0629_
*664 _0630_
*665 _0631_
*666 _0632_
*667 place29
*668 _0634_
*669 _0635_
*670 _0636_
*671 _0637_
*672 _0638_
*673 _0639_
*674 _0640_
*675 _0641_
*676 _0642_
*677 _0643_
*678 _0644_
*679 _0645_
*680 output24
*681 _0647_
*682 _0648_
*683 _0649_
*684 _0650_
*685 _0651_
*686 _0652_
*687 _0653_
*688 output23
*689 _0655_
*690 output22
*691 _0657_
*692 _0658_
*693 _0659_
*694 _0660_
*695 _0661_
*696 _0662_
*697 _0663_
*698 _0664_
*699 _0665_
*700 _0666_
*701 output21
*702 _0668_
*703 _0669_
*704 _0670_
*705 _0671_
*706 _0672_
*707 _0673_
*708 _0674_
*709 _0675_
*710 _0676_
*711 _0677_
*712 _0678_
*713 _0679_
*714 _0680_
*715 _0681_
*716 _0682_
*717 output20
*718 _0684_
*719 _0685_
*720 _0686_
*721 _0687_
*722 _0688_
*723 _0689_
*724 _0690_
*725 _0691_
*726 _0692_
*727 _0693_
*728 _0694_
*729 _0695_
*730 _0696_
*731 _0697_
*732 _0698_
*733 _0699_
*734 _0700_
*735 _0701_
*736 _0702_
*737 _0703_
*738 _0704_
*739 _0705_
*740 _0706_
*741 _0707_
*742 _0708_
*743 _0709_
*744 output19
*745 _0711_
*746 _0712_
*747 output18
*748 _0714_
*749 _0715_
*750 _0716_
*751 _0717_
*752 _0718_
*753 _0719_
*754 output17
*755 _0721_
*756 output16
*757 _0723_
*758 _0724_
*759 _0725_
*760 _0726_
*761 _0727_
*762 _0728_
*763 _0729_
*764 _0730_
*765 _0731_
*766 _0732_
*767 _0733_
*768 _0734_
*769 output15
*770 _0736_
*771 _0737_
*772 _0738_
*773 _0739_
*774 output14
*775 _0741_
*776 _0742_
*777 _0743_
*778 _0744_
*779 _0745_
*780 _0746_
*781 _0747_
*782 _0748_
*783 _0749_
*784 _0750_
*785 output13
*786 _0752_
*787 _0753_
*788 _0754_
*789 _0755_
*790 _0756_
*791 _0757_
*792 output12
*793 _0759_
*794 _0760_
*795 _0761_
*796 _0762_
*797 _0763_
*798 _0764_
*799 _0765_
*800 _0766_
*801 _0767_
*802 _0768_
*803 _0769_
*804 _0770_
*805 output11
*806 _0772_
*807 _0773_
*808 _0774_
*809 _0775_
*810 _0776_
*811 _0777_
*812 _0778_
*813 _0779_
*814 _0780_
*815 _0781_
*816 _0782_
*817 _0783_
*818 _0784_
*819 _0785_
*820 _0786_
*821 _0787_
*822 _0788_
*823 _0789_
*824 output10
*825 _0791_
*826 _0792_
*827 _0793_
*828 _0794_
*829 _0795_
*830 _0796_
*831 _0797_
*832 _0798_
*833 _0799_
*834 _0800_
*835 _0801_
*836 _0802_
*837 _0803_
*838 _0804_
*839 _0805_
*840 _0806_
*841 _0807_
*842 _0808_
*843 _0809_
*844 _0810_
*845 _0811_
*846 _0812_
*847 _0813_
*848 _0814_
*849 _0815_
*850 _0816_
*851 _0817_
*852 _0818_
*853 _0819_
*854 _0820_
*855 _0821_
*856 _0822_
*857 _0823_
*858 _0824_
*859 _0825_
*860 _0826_
*861 _0827_
*862 _0828_
*863 _0829_
*864 _0830_
*865 _0831_
*866 _0832_
*867 _0833_
*868 _0834_
*869 _0835_
*870 output9
*871 _0837_
*872 _0838_
*873 _0839_
*874 _0840_
*875 _0841_
*876 _0842_
*877 _0843_
*878 _0844_
*879 _0845_
*880 _0846_
*881 _0847_
*882 _0848_
*883 _0849_
*884 _0850_
*885 _0851_
*886 _0852_
*887 _0853_
*888 _0854_
*889 _0855_
*890 _0856_
*891 _0857_
*892 _0858_
*893 _0859_
*894 _0860_
*895 _0861_
*896 _0862_
*897 _0863_
*898 _0864_
*899 _0865_
*900 _0866_
*901 _0867_
*902 _0868_
*903 _0869_
*904 _0870_
*905 _0871_
*906 _0872_
*907 _0873_
*908 _0874_
*909 _0875_
*910 _0876_
*911 _0877_
*912 _0878_
*913 _0879_
*914 _0880_
*915 _0881_
*916 _0882_
*917 _0883_
*918 _0884_
*919 _0885_
*920 _0886_
*921 _0887_
*922 _0888_
*923 _0889_
*924 _0890_
*925 _0891_
*926 _0892_
*927 _0893_
*928 _0894_
*929 _0895_
*930 _0896_
*931 _0897_
*932 _0898_
*933 _0899_
*934 _0900_
*935 _0901_
*936 _0902_
*937 _0903_
*938 _0904_
*939 _0905_
*940 _0906_
*941 _0907_
*942 _0908_
*943 _0909_
*944 _0910_
*945 _0911_
*946 _0912_
*947 _0913_
*948 _0914_
*949 _0915_
*950 _0916_
*951 _0917_
*952 _0918_
*953 _0919_
*954 _0920_
*955 _0921_
*956 _0922_
*957 _0923_
*958 _0924_
*959 _0925_
*960 _0926_
*961 _0927_
*962 _0928_
*963 _0929_
*964 _0930_
*965 _0931_
*966 _0932_
*967 _0933_
*968 _0934_
*969 _0935_
*970 _0936_
*971 _0937_
*972 _0938_
*973 _0939_
*974 _0940_
*975 _0941_
*976 _0942_
*977 _0943_
*978 _0944_
*979 _0945_
*980 _0946_
*981 _0947_
*982 _0948_
*983 _0949_
*984 _0950_
*985 _0951_
*986 _0952_
*987 _0953_
*988 _0954_
*989 _0955_
*990 _0956_
*991 _0957_
*992 _0958_
*993 _0959_
*994 _0960_
*995 _0961_
*996 _0962_
*997 _0963_
*998 _0964_
*999 _0965_
*1000 _0966_
*1001 _0967_
*1002 _0968_
*1003 _0969_
*1004 _0970_
*1005 _0971_
*1006 _0972_
*1007 _0973_
*1008 _0974_
*1009 _0975_
*1010 _0976_
*1011 _0977_
*1012 _0978_
*1013 _0979_
*1014 _0980_
*1015 _0981_
*1016 _0982_
*1017 _0983_
*1018 _0984_
*1019 _0985_
*1020 _0986_
*1021 _0987_
*1022 _0988_
*1023 _0989_
*1024 _0990_
*1025 _0991_
*1026 _0992_
*1027 _0993_
*1028 _0994_
*1029 _0995_
*1030 _0996_
*1031 _0997_
*1032 _0998_
*1033 _0999_
*1034 _1000_
*1035 _1001_
*1036 _1002_
*1037 _1003_
*1038 _1004_
*1039 _1005_
*1040 _1006_
*1041 _1007_
*1042 _1008_
*1043 _1009_
*1044 _1010_
*1045 _1011_
*1046 _1012_
*1047 _1013_
*1048 _1014_
*1049 _1015_
*1050 _1016_
*1051 _1017_
*1052 _1018_
*1053 _1019_
*1054 _1020_
*1055 _1021_
*1056 _1022_
*1057 _1023_
*1058 _1024_
*1059 _1025_
*1060 _1026_
*1061 _1027_
*1062 _1028_
*1063 _1029_
*1064 _1030_
*1065 _1031_
*1066 _1032_
*1067 _1033_
*1068 _1034_
*1069 _1035_
*1070 _1036_
*1071 _1037_
*1072 _1038_
*1073 _1039_
*1074 input8
*1075 input7
*1076 input6
*1077 input5
*1078 input4
*1079 input3
*1080 input2
*1081 input1
*1082 cy\[0\]\$_DFF_P_
*1083 cy\[1\]\$_DFF_P_
*1084 cy\[2\]\$_DFF_P_
*1085 cy\[3\]\$_DFF_P_
*1086 cy\[4\]\$_DFF_P_
*1087 cy\[5\]\$_DFF_P_
*1088 cy\[6\]\$_DFF_P_
*1089 cy\[7\]\$_DFF_P_
*1090 TAP_TAPCELL_ROW_0_0
*1091 TAP_TAPCELL_ROW_0_1
*1092 TAP_TAPCELL_ROW_0_2
*1093 TAP_TAPCELL_ROW_0_3
*1094 TAP_TAPCELL_ROW_0_4
*1095 TAP_TAPCELL_ROW_0_5
*1096 TAP_TAPCELL_ROW_0_6
*1097 TAP_TAPCELL_ROW_0_7
*1098 TAP_TAPCELL_ROW_0_8
*1099 TAP_TAPCELL_ROW_0_9
*1100 TAP_TAPCELL_ROW_0_10
*1101 TAP_TAPCELL_ROW_0_11
*1102 TAP_TAPCELL_ROW_0_12
*1103 TAP_TAPCELL_ROW_0_13
*1104 TAP_TAPCELL_ROW_0_14
*1105 TAP_TAPCELL_ROW_0_15
*1106 TAP_TAPCELL_ROW_0_16
*1107 TAP_TAPCELL_ROW_0_17
*1108 TAP_TAPCELL_ROW_1_18
*1109 TAP_TAPCELL_ROW_1_19
*1110 TAP_TAPCELL_ROW_1_20
*1111 TAP_TAPCELL_ROW_1_21
*1112 TAP_TAPCELL_ROW_1_22
*1113 TAP_TAPCELL_ROW_1_23
*1114 TAP_TAPCELL_ROW_1_24
*1115 TAP_TAPCELL_ROW_1_25
*1116 TAP_TAPCELL_ROW_1_26
*1117 TAP_TAPCELL_ROW_2_27
*1118 TAP_TAPCELL_ROW_2_28
*1119 TAP_TAPCELL_ROW_2_29
*1120 TAP_TAPCELL_ROW_2_30
*1121 TAP_TAPCELL_ROW_2_31
*1122 TAP_TAPCELL_ROW_2_32
*1123 TAP_TAPCELL_ROW_2_33
*1124 TAP_TAPCELL_ROW_2_34
*1125 TAP_TAPCELL_ROW_2_35
*1126 TAP_TAPCELL_ROW_3_36
*1127 TAP_TAPCELL_ROW_3_37
*1128 TAP_TAPCELL_ROW_3_38
*1129 TAP_TAPCELL_ROW_3_39
*1130 TAP_TAPCELL_ROW_3_40
*1131 TAP_TAPCELL_ROW_3_41
*1132 TAP_TAPCELL_ROW_3_42
*1133 TAP_TAPCELL_ROW_3_43
*1134 TAP_TAPCELL_ROW_3_44
*1135 TAP_TAPCELL_ROW_4_45
*1136 TAP_TAPCELL_ROW_4_46
*1137 TAP_TAPCELL_ROW_4_47
*1138 TAP_TAPCELL_ROW_4_48
*1139 TAP_TAPCELL_ROW_4_49
*1140 TAP_TAPCELL_ROW_4_50
*1141 TAP_TAPCELL_ROW_4_51
*1142 TAP_TAPCELL_ROW_4_52
*1143 TAP_TAPCELL_ROW_4_53
*1144 TAP_TAPCELL_ROW_5_54
*1145 TAP_TAPCELL_ROW_5_55
*1146 TAP_TAPCELL_ROW_5_56
*1147 TAP_TAPCELL_ROW_5_57
*1148 TAP_TAPCELL_ROW_5_58
*1149 TAP_TAPCELL_ROW_5_59
*1150 TAP_TAPCELL_ROW_5_60
*1151 TAP_TAPCELL_ROW_5_61
*1152 TAP_TAPCELL_ROW_5_62
*1153 TAP_TAPCELL_ROW_6_63
*1154 TAP_TAPCELL_ROW_6_64
*1155 TAP_TAPCELL_ROW_6_65
*1156 TAP_TAPCELL_ROW_6_66
*1157 TAP_TAPCELL_ROW_6_67
*1158 TAP_TAPCELL_ROW_6_68
*1159 TAP_TAPCELL_ROW_6_69
*1160 TAP_TAPCELL_ROW_6_70
*1161 TAP_TAPCELL_ROW_6_71
*1162 TAP_TAPCELL_ROW_7_72
*1163 TAP_TAPCELL_ROW_7_73
*1164 TAP_TAPCELL_ROW_7_74
*1165 TAP_TAPCELL_ROW_7_75
*1166 TAP_TAPCELL_ROW_7_76
*1167 TAP_TAPCELL_ROW_7_77
*1168 TAP_TAPCELL_ROW_7_78
*1169 TAP_TAPCELL_ROW_7_79
*1170 TAP_TAPCELL_ROW_7_80
*1171 TAP_TAPCELL_ROW_8_81
*1172 TAP_TAPCELL_ROW_8_82
*1173 TAP_TAPCELL_ROW_8_83
*1174 TAP_TAPCELL_ROW_8_84
*1175 TAP_TAPCELL_ROW_8_85
*1176 TAP_TAPCELL_ROW_8_86
*1177 TAP_TAPCELL_ROW_8_87
*1178 TAP_TAPCELL_ROW_8_88
*1179 TAP_TAPCELL_ROW_8_89
*1180 TAP_TAPCELL_ROW_9_90
*1181 TAP_TAPCELL_ROW_9_91
*1182 TAP_TAPCELL_ROW_9_92
*1183 TAP_TAPCELL_ROW_9_93
*1184 TAP_TAPCELL_ROW_9_94
*1185 TAP_TAPCELL_ROW_9_95
*1186 TAP_TAPCELL_ROW_9_96
*1187 TAP_TAPCELL_ROW_9_97
*1188 TAP_TAPCELL_ROW_9_98
*1189 TAP_TAPCELL_ROW_10_99
*1190 TAP_TAPCELL_ROW_10_100
*1191 TAP_TAPCELL_ROW_10_101
*1192 TAP_TAPCELL_ROW_10_102
*1193 TAP_TAPCELL_ROW_10_103
*1194 TAP_TAPCELL_ROW_10_104
*1195 TAP_TAPCELL_ROW_10_105
*1196 TAP_TAPCELL_ROW_10_106
*1197 TAP_TAPCELL_ROW_10_107
*1198 TAP_TAPCELL_ROW_11_108
*1199 TAP_TAPCELL_ROW_11_109
*1200 TAP_TAPCELL_ROW_11_110
*1201 TAP_TAPCELL_ROW_11_111
*1202 TAP_TAPCELL_ROW_11_112
*1203 TAP_TAPCELL_ROW_11_113
*1204 TAP_TAPCELL_ROW_11_114
*1205 TAP_TAPCELL_ROW_11_115
*1206 TAP_TAPCELL_ROW_11_116
*1207 TAP_TAPCELL_ROW_12_117
*1208 TAP_TAPCELL_ROW_12_118
*1209 TAP_TAPCELL_ROW_12_119
*1210 TAP_TAPCELL_ROW_12_120
*1211 TAP_TAPCELL_ROW_12_121
*1212 TAP_TAPCELL_ROW_12_122
*1213 TAP_TAPCELL_ROW_12_123
*1214 TAP_TAPCELL_ROW_12_124
*1215 TAP_TAPCELL_ROW_12_125
*1216 TAP_TAPCELL_ROW_13_126
*1217 TAP_TAPCELL_ROW_13_127
*1218 TAP_TAPCELL_ROW_13_128
*1219 TAP_TAPCELL_ROW_13_129
*1220 TAP_TAPCELL_ROW_13_130
*1221 TAP_TAPCELL_ROW_13_131
*1222 TAP_TAPCELL_ROW_13_132
*1223 TAP_TAPCELL_ROW_13_133
*1224 TAP_TAPCELL_ROW_13_134
*1225 TAP_TAPCELL_ROW_14_135
*1226 TAP_TAPCELL_ROW_14_136
*1227 TAP_TAPCELL_ROW_14_137
*1228 TAP_TAPCELL_ROW_14_138
*1229 TAP_TAPCELL_ROW_14_139
*1230 TAP_TAPCELL_ROW_14_140
*1231 TAP_TAPCELL_ROW_14_141
*1232 TAP_TAPCELL_ROW_14_142
*1233 TAP_TAPCELL_ROW_14_143
*1234 TAP_TAPCELL_ROW_15_144
*1235 TAP_TAPCELL_ROW_15_145
*1236 TAP_TAPCELL_ROW_15_146
*1237 TAP_TAPCELL_ROW_15_147
*1238 TAP_TAPCELL_ROW_15_148
*1239 TAP_TAPCELL_ROW_15_149
*1240 TAP_TAPCELL_ROW_15_150
*1241 TAP_TAPCELL_ROW_15_151
*1242 TAP_TAPCELL_ROW_15_152
*1243 TAP_TAPCELL_ROW_16_153
*1244 TAP_TAPCELL_ROW_16_154
*1245 TAP_TAPCELL_ROW_16_155
*1246 TAP_TAPCELL_ROW_16_156
*1247 TAP_TAPCELL_ROW_16_157
*1248 TAP_TAPCELL_ROW_16_158
*1249 TAP_TAPCELL_ROW_16_159
*1250 TAP_TAPCELL_ROW_16_160
*1251 TAP_TAPCELL_ROW_16_161
*1252 TAP_TAPCELL_ROW_17_162
*1253 TAP_TAPCELL_ROW_17_163
*1254 TAP_TAPCELL_ROW_17_164
*1255 TAP_TAPCELL_ROW_17_165
*1256 TAP_TAPCELL_ROW_17_166
*1257 TAP_TAPCELL_ROW_17_167
*1258 TAP_TAPCELL_ROW_17_168
*1259 TAP_TAPCELL_ROW_17_169
*1260 TAP_TAPCELL_ROW_17_170
*1261 TAP_TAPCELL_ROW_18_171
*1262 TAP_TAPCELL_ROW_18_172
*1263 TAP_TAPCELL_ROW_18_173
*1264 TAP_TAPCELL_ROW_18_174
*1265 TAP_TAPCELL_ROW_18_175
*1266 TAP_TAPCELL_ROW_18_176
*1267 TAP_TAPCELL_ROW_18_177
*1268 TAP_TAPCELL_ROW_18_178
*1269 TAP_TAPCELL_ROW_18_179
*1270 TAP_TAPCELL_ROW_19_180
*1271 TAP_TAPCELL_ROW_19_181
*1272 TAP_TAPCELL_ROW_19_182
*1273 TAP_TAPCELL_ROW_19_183
*1274 TAP_TAPCELL_ROW_19_184
*1275 TAP_TAPCELL_ROW_19_185
*1276 TAP_TAPCELL_ROW_19_186
*1277 TAP_TAPCELL_ROW_19_187
*1278 TAP_TAPCELL_ROW_19_188
*1279 TAP_TAPCELL_ROW_20_189
*1280 TAP_TAPCELL_ROW_20_190
*1281 TAP_TAPCELL_ROW_20_191
*1282 TAP_TAPCELL_ROW_20_192
*1283 TAP_TAPCELL_ROW_20_193
*1284 TAP_TAPCELL_ROW_20_194
*1285 TAP_TAPCELL_ROW_20_195
*1286 TAP_TAPCELL_ROW_20_196
*1287 TAP_TAPCELL_ROW_20_197
*1288 TAP_TAPCELL_ROW_21_198
*1289 TAP_TAPCELL_ROW_21_199
*1290 TAP_TAPCELL_ROW_21_200
*1291 TAP_TAPCELL_ROW_21_201
*1292 TAP_TAPCELL_ROW_21_202
*1293 TAP_TAPCELL_ROW_21_203
*1294 TAP_TAPCELL_ROW_21_204
*1295 TAP_TAPCELL_ROW_21_205
*1296 TAP_TAPCELL_ROW_21_206
*1297 TAP_TAPCELL_ROW_22_207
*1298 TAP_TAPCELL_ROW_22_208
*1299 TAP_TAPCELL_ROW_22_209
*1300 TAP_TAPCELL_ROW_22_210
*1301 TAP_TAPCELL_ROW_22_211
*1302 TAP_TAPCELL_ROW_22_212
*1303 TAP_TAPCELL_ROW_22_213
*1304 TAP_TAPCELL_ROW_22_214
*1305 TAP_TAPCELL_ROW_22_215
*1306 TAP_TAPCELL_ROW_23_216
*1307 TAP_TAPCELL_ROW_23_217
*1308 TAP_TAPCELL_ROW_23_218
*1309 TAP_TAPCELL_ROW_23_219
*1310 TAP_TAPCELL_ROW_23_220
*1311 TAP_TAPCELL_ROW_23_221
*1312 TAP_TAPCELL_ROW_23_222
*1313 TAP_TAPCELL_ROW_23_223
*1314 TAP_TAPCELL_ROW_23_224
*1315 TAP_TAPCELL_ROW_24_225
*1316 TAP_TAPCELL_ROW_24_226
*1317 TAP_TAPCELL_ROW_24_227
*1318 TAP_TAPCELL_ROW_24_228
*1319 TAP_TAPCELL_ROW_24_229
*1320 TAP_TAPCELL_ROW_24_230
*1321 TAP_TAPCELL_ROW_24_231
*1322 TAP_TAPCELL_ROW_24_232
*1323 TAP_TAPCELL_ROW_24_233
*1324 TAP_TAPCELL_ROW_25_234
*1325 TAP_TAPCELL_ROW_25_235
*1326 TAP_TAPCELL_ROW_25_236
*1327 TAP_TAPCELL_ROW_25_237
*1328 TAP_TAPCELL_ROW_25_238
*1329 TAP_TAPCELL_ROW_25_239
*1330 TAP_TAPCELL_ROW_25_240
*1331 TAP_TAPCELL_ROW_25_241
*1332 TAP_TAPCELL_ROW_25_242
*1333 TAP_TAPCELL_ROW_26_243
*1334 TAP_TAPCELL_ROW_26_244
*1335 TAP_TAPCELL_ROW_26_245
*1336 TAP_TAPCELL_ROW_26_246
*1337 TAP_TAPCELL_ROW_26_247
*1338 TAP_TAPCELL_ROW_26_248
*1339 TAP_TAPCELL_ROW_26_249
*1340 TAP_TAPCELL_ROW_26_250
*1341 TAP_TAPCELL_ROW_26_251
*1342 TAP_TAPCELL_ROW_27_252
*1343 TAP_TAPCELL_ROW_27_253
*1344 TAP_TAPCELL_ROW_27_254
*1345 TAP_TAPCELL_ROW_27_255
*1346 TAP_TAPCELL_ROW_27_256
*1347 TAP_TAPCELL_ROW_27_257
*1348 TAP_TAPCELL_ROW_27_258
*1349 TAP_TAPCELL_ROW_27_259
*1350 TAP_TAPCELL_ROW_27_260
*1351 TAP_TAPCELL_ROW_28_261
*1352 TAP_TAPCELL_ROW_28_262
*1353 TAP_TAPCELL_ROW_28_263
*1354 TAP_TAPCELL_ROW_28_264
*1355 TAP_TAPCELL_ROW_28_265
*1356 TAP_TAPCELL_ROW_28_266
*1357 TAP_TAPCELL_ROW_28_267
*1358 TAP_TAPCELL_ROW_28_268
*1359 TAP_TAPCELL_ROW_28_269
*1360 TAP_TAPCELL_ROW_29_270
*1361 TAP_TAPCELL_ROW_29_271
*1362 TAP_TAPCELL_ROW_29_272
*1363 TAP_TAPCELL_ROW_29_273
*1364 TAP_TAPCELL_ROW_29_274
*1365 TAP_TAPCELL_ROW_29_275
*1366 TAP_TAPCELL_ROW_29_276
*1367 TAP_TAPCELL_ROW_29_277
*1368 TAP_TAPCELL_ROW_29_278
*1369 TAP_TAPCELL_ROW_30_279
*1370 TAP_TAPCELL_ROW_30_280
*1371 TAP_TAPCELL_ROW_30_281
*1372 TAP_TAPCELL_ROW_30_282
*1373 TAP_TAPCELL_ROW_30_283
*1374 TAP_TAPCELL_ROW_30_284
*1375 TAP_TAPCELL_ROW_30_285
*1376 TAP_TAPCELL_ROW_30_286
*1377 TAP_TAPCELL_ROW_30_287
*1378 TAP_TAPCELL_ROW_31_288
*1379 TAP_TAPCELL_ROW_31_289
*1380 TAP_TAPCELL_ROW_31_290
*1381 TAP_TAPCELL_ROW_31_291
*1382 TAP_TAPCELL_ROW_31_292
*1383 TAP_TAPCELL_ROW_31_293
*1384 TAP_TAPCELL_ROW_31_294
*1385 TAP_TAPCELL_ROW_31_295
*1386 TAP_TAPCELL_ROW_31_296
*1387 TAP_TAPCELL_ROW_32_297
*1388 TAP_TAPCELL_ROW_32_298
*1389 TAP_TAPCELL_ROW_32_299
*1390 TAP_TAPCELL_ROW_32_300
*1391 TAP_TAPCELL_ROW_32_301
*1392 TAP_TAPCELL_ROW_32_302
*1393 TAP_TAPCELL_ROW_32_303
*1394 TAP_TAPCELL_ROW_32_304
*1395 TAP_TAPCELL_ROW_32_305
*1396 TAP_TAPCELL_ROW_33_306
*1397 TAP_TAPCELL_ROW_33_307
*1398 TAP_TAPCELL_ROW_33_308
*1399 TAP_TAPCELL_ROW_33_309
*1400 TAP_TAPCELL_ROW_33_310
*1401 TAP_TAPCELL_ROW_33_311
*1402 TAP_TAPCELL_ROW_33_312
*1403 TAP_TAPCELL_ROW_33_313
*1404 TAP_TAPCELL_ROW_33_314
*1405 TAP_TAPCELL_ROW_34_315
*1406 TAP_TAPCELL_ROW_34_316
*1407 TAP_TAPCELL_ROW_34_317
*1408 TAP_TAPCELL_ROW_34_318
*1409 TAP_TAPCELL_ROW_34_319
*1410 TAP_TAPCELL_ROW_34_320
*1411 TAP_TAPCELL_ROW_34_321
*1412 TAP_TAPCELL_ROW_34_322
*1413 TAP_TAPCELL_ROW_34_323
*1414 TAP_TAPCELL_ROW_35_324
*1415 TAP_TAPCELL_ROW_35_325
*1416 TAP_TAPCELL_ROW_35_326
*1417 TAP_TAPCELL_ROW_35_327
*1418 TAP_TAPCELL_ROW_35_328
*1419 TAP_TAPCELL_ROW_35_329
*1420 TAP_TAPCELL_ROW_35_330
*1421 TAP_TAPCELL_ROW_35_331
*1422 TAP_TAPCELL_ROW_35_332
*1423 TAP_TAPCELL_ROW_36_333
*1424 TAP_TAPCELL_ROW_36_334
*1425 TAP_TAPCELL_ROW_36_335
*1426 TAP_TAPCELL_ROW_36_336
*1427 TAP_TAPCELL_ROW_36_337
*1428 TAP_TAPCELL_ROW_36_338
*1429 TAP_TAPCELL_ROW_36_339
*1430 TAP_TAPCELL_ROW_36_340
*1431 TAP_TAPCELL_ROW_36_341
*1432 TAP_TAPCELL_ROW_37_342
*1433 TAP_TAPCELL_ROW_37_343
*1434 TAP_TAPCELL_ROW_37_344
*1435 TAP_TAPCELL_ROW_37_345
*1436 TAP_TAPCELL_ROW_37_346
*1437 TAP_TAPCELL_ROW_37_347
*1438 TAP_TAPCELL_ROW_37_348
*1439 TAP_TAPCELL_ROW_37_349
*1440 TAP_TAPCELL_ROW_37_350
*1441 TAP_TAPCELL_ROW_38_351
*1442 TAP_TAPCELL_ROW_38_352
*1443 TAP_TAPCELL_ROW_38_353
*1444 TAP_TAPCELL_ROW_38_354
*1445 TAP_TAPCELL_ROW_38_355
*1446 TAP_TAPCELL_ROW_38_356
*1447 TAP_TAPCELL_ROW_38_357
*1448 TAP_TAPCELL_ROW_38_358
*1449 TAP_TAPCELL_ROW_38_359
*1450 TAP_TAPCELL_ROW_39_360
*1451 TAP_TAPCELL_ROW_39_361
*1452 TAP_TAPCELL_ROW_39_362
*1453 TAP_TAPCELL_ROW_39_363
*1454 TAP_TAPCELL_ROW_39_364
*1455 TAP_TAPCELL_ROW_39_365
*1456 TAP_TAPCELL_ROW_39_366
*1457 TAP_TAPCELL_ROW_39_367
*1458 TAP_TAPCELL_ROW_39_368
*1459 TAP_TAPCELL_ROW_40_369
*1460 TAP_TAPCELL_ROW_40_370
*1461 TAP_TAPCELL_ROW_40_371
*1462 TAP_TAPCELL_ROW_40_372
*1463 TAP_TAPCELL_ROW_40_373
*1464 TAP_TAPCELL_ROW_40_374
*1465 TAP_TAPCELL_ROW_40_375
*1466 TAP_TAPCELL_ROW_40_376
*1467 TAP_TAPCELL_ROW_40_377
*1468 TAP_TAPCELL_ROW_41_378
*1469 TAP_TAPCELL_ROW_41_379
*1470 TAP_TAPCELL_ROW_41_380
*1471 TAP_TAPCELL_ROW_41_381
*1472 TAP_TAPCELL_ROW_41_382
*1473 TAP_TAPCELL_ROW_41_383
*1474 TAP_TAPCELL_ROW_41_384
*1475 TAP_TAPCELL_ROW_41_385
*1476 TAP_TAPCELL_ROW_41_386
*1477 TAP_TAPCELL_ROW_42_387
*1478 TAP_TAPCELL_ROW_42_388
*1479 TAP_TAPCELL_ROW_42_389
*1480 TAP_TAPCELL_ROW_42_390
*1481 TAP_TAPCELL_ROW_42_391
*1482 TAP_TAPCELL_ROW_42_392
*1483 TAP_TAPCELL_ROW_42_393
*1484 TAP_TAPCELL_ROW_42_394
*1485 TAP_TAPCELL_ROW_42_395
*1486 TAP_TAPCELL_ROW_43_396
*1487 TAP_TAPCELL_ROW_43_397
*1488 TAP_TAPCELL_ROW_43_398
*1489 TAP_TAPCELL_ROW_43_399
*1490 TAP_TAPCELL_ROW_43_400
*1491 TAP_TAPCELL_ROW_43_401
*1492 TAP_TAPCELL_ROW_43_402
*1493 TAP_TAPCELL_ROW_43_403
*1494 TAP_TAPCELL_ROW_43_404
*1495 TAP_TAPCELL_ROW_44_405
*1496 TAP_TAPCELL_ROW_44_406
*1497 TAP_TAPCELL_ROW_44_407
*1498 TAP_TAPCELL_ROW_44_408
*1499 TAP_TAPCELL_ROW_44_409
*1500 TAP_TAPCELL_ROW_44_410
*1501 TAP_TAPCELL_ROW_44_411
*1502 TAP_TAPCELL_ROW_44_412
*1503 TAP_TAPCELL_ROW_44_413
*1504 TAP_TAPCELL_ROW_45_414
*1505 TAP_TAPCELL_ROW_45_415
*1506 TAP_TAPCELL_ROW_45_416
*1507 TAP_TAPCELL_ROW_45_417
*1508 TAP_TAPCELL_ROW_45_418
*1509 TAP_TAPCELL_ROW_45_419
*1510 TAP_TAPCELL_ROW_45_420
*1511 TAP_TAPCELL_ROW_45_421
*1512 TAP_TAPCELL_ROW_45_422
*1513 TAP_TAPCELL_ROW_46_423
*1514 TAP_TAPCELL_ROW_46_424
*1515 TAP_TAPCELL_ROW_46_425
*1516 TAP_TAPCELL_ROW_46_426
*1517 TAP_TAPCELL_ROW_46_427
*1518 TAP_TAPCELL_ROW_46_428
*1519 TAP_TAPCELL_ROW_46_429
*1520 TAP_TAPCELL_ROW_46_430
*1521 TAP_TAPCELL_ROW_46_431
*1522 TAP_TAPCELL_ROW_47_432
*1523 TAP_TAPCELL_ROW_47_433
*1524 TAP_TAPCELL_ROW_47_434
*1525 TAP_TAPCELL_ROW_47_435
*1526 TAP_TAPCELL_ROW_47_436
*1527 TAP_TAPCELL_ROW_47_437
*1528 TAP_TAPCELL_ROW_47_438
*1529 TAP_TAPCELL_ROW_47_439
*1530 TAP_TAPCELL_ROW_47_440
*1531 TAP_TAPCELL_ROW_48_441
*1532 TAP_TAPCELL_ROW_48_442
*1533 TAP_TAPCELL_ROW_48_443
*1534 TAP_TAPCELL_ROW_48_444
*1535 TAP_TAPCELL_ROW_48_445
*1536 TAP_TAPCELL_ROW_48_446
*1537 TAP_TAPCELL_ROW_48_447
*1538 TAP_TAPCELL_ROW_48_448
*1539 TAP_TAPCELL_ROW_48_449
*1540 TAP_TAPCELL_ROW_49_450
*1541 TAP_TAPCELL_ROW_49_451
*1542 TAP_TAPCELL_ROW_49_452
*1543 TAP_TAPCELL_ROW_49_453
*1544 TAP_TAPCELL_ROW_49_454
*1545 TAP_TAPCELL_ROW_49_455
*1546 TAP_TAPCELL_ROW_49_456
*1547 TAP_TAPCELL_ROW_49_457
*1548 TAP_TAPCELL_ROW_49_458
*1549 TAP_TAPCELL_ROW_50_459
*1550 TAP_TAPCELL_ROW_50_460
*1551 TAP_TAPCELL_ROW_50_461
*1552 TAP_TAPCELL_ROW_50_462
*1553 TAP_TAPCELL_ROW_50_463
*1554 TAP_TAPCELL_ROW_50_464
*1555 TAP_TAPCELL_ROW_50_465
*1556 TAP_TAPCELL_ROW_50_466
*1557 TAP_TAPCELL_ROW_50_467
*1558 TAP_TAPCELL_ROW_51_468
*1559 TAP_TAPCELL_ROW_51_469
*1560 TAP_TAPCELL_ROW_51_470
*1561 TAP_TAPCELL_ROW_51_471
*1562 TAP_TAPCELL_ROW_51_472
*1563 TAP_TAPCELL_ROW_51_473
*1564 TAP_TAPCELL_ROW_51_474
*1565 TAP_TAPCELL_ROW_51_475
*1566 TAP_TAPCELL_ROW_51_476
*1567 TAP_TAPCELL_ROW_52_477
*1568 TAP_TAPCELL_ROW_52_478
*1569 TAP_TAPCELL_ROW_52_479
*1570 TAP_TAPCELL_ROW_52_480
*1571 TAP_TAPCELL_ROW_52_481
*1572 TAP_TAPCELL_ROW_52_482
*1573 TAP_TAPCELL_ROW_52_483
*1574 TAP_TAPCELL_ROW_52_484
*1575 TAP_TAPCELL_ROW_52_485
*1576 TAP_TAPCELL_ROW_53_486
*1577 TAP_TAPCELL_ROW_53_487
*1578 TAP_TAPCELL_ROW_53_488
*1579 TAP_TAPCELL_ROW_53_489
*1580 TAP_TAPCELL_ROW_53_490
*1581 TAP_TAPCELL_ROW_53_491
*1582 TAP_TAPCELL_ROW_53_492
*1583 TAP_TAPCELL_ROW_53_493
*1584 TAP_TAPCELL_ROW_53_494
*1585 TAP_TAPCELL_ROW_54_495
*1586 TAP_TAPCELL_ROW_54_496
*1587 TAP_TAPCELL_ROW_54_497
*1588 TAP_TAPCELL_ROW_54_498
*1589 TAP_TAPCELL_ROW_54_499
*1590 TAP_TAPCELL_ROW_54_500
*1591 TAP_TAPCELL_ROW_54_501
*1592 TAP_TAPCELL_ROW_54_502
*1593 TAP_TAPCELL_ROW_54_503
*1594 TAP_TAPCELL_ROW_55_504
*1595 TAP_TAPCELL_ROW_55_505
*1596 TAP_TAPCELL_ROW_55_506
*1597 TAP_TAPCELL_ROW_55_507
*1598 TAP_TAPCELL_ROW_55_508
*1599 TAP_TAPCELL_ROW_55_509
*1600 TAP_TAPCELL_ROW_55_510
*1601 TAP_TAPCELL_ROW_55_511
*1602 TAP_TAPCELL_ROW_55_512
*1603 TAP_TAPCELL_ROW_56_513
*1604 TAP_TAPCELL_ROW_56_514
*1605 TAP_TAPCELL_ROW_56_515
*1606 TAP_TAPCELL_ROW_56_516
*1607 TAP_TAPCELL_ROW_56_517
*1608 TAP_TAPCELL_ROW_56_518
*1609 TAP_TAPCELL_ROW_56_519
*1610 TAP_TAPCELL_ROW_56_520
*1611 TAP_TAPCELL_ROW_56_521
*1612 TAP_TAPCELL_ROW_57_522
*1613 TAP_TAPCELL_ROW_57_523
*1614 TAP_TAPCELL_ROW_57_524
*1615 TAP_TAPCELL_ROW_57_525
*1616 TAP_TAPCELL_ROW_57_526
*1617 TAP_TAPCELL_ROW_57_527
*1618 TAP_TAPCELL_ROW_57_528
*1619 TAP_TAPCELL_ROW_57_529
*1620 TAP_TAPCELL_ROW_57_530
*1621 TAP_TAPCELL_ROW_58_531
*1622 TAP_TAPCELL_ROW_58_532
*1623 TAP_TAPCELL_ROW_58_533
*1624 TAP_TAPCELL_ROW_58_534
*1625 TAP_TAPCELL_ROW_58_535
*1626 TAP_TAPCELL_ROW_58_536
*1627 TAP_TAPCELL_ROW_58_537
*1628 TAP_TAPCELL_ROW_58_538
*1629 TAP_TAPCELL_ROW_58_539
*1630 TAP_TAPCELL_ROW_59_540
*1631 TAP_TAPCELL_ROW_59_541
*1632 TAP_TAPCELL_ROW_59_542
*1633 TAP_TAPCELL_ROW_59_543
*1634 TAP_TAPCELL_ROW_59_544
*1635 TAP_TAPCELL_ROW_59_545
*1636 TAP_TAPCELL_ROW_59_546
*1637 TAP_TAPCELL_ROW_59_547
*1638 TAP_TAPCELL_ROW_59_548
*1639 TAP_TAPCELL_ROW_60_549
*1640 TAP_TAPCELL_ROW_60_550
*1641 TAP_TAPCELL_ROW_60_551
*1642 TAP_TAPCELL_ROW_60_552
*1643 TAP_TAPCELL_ROW_60_553
*1644 TAP_TAPCELL_ROW_60_554
*1645 TAP_TAPCELL_ROW_60_555
*1646 TAP_TAPCELL_ROW_60_556
*1647 TAP_TAPCELL_ROW_60_557
*1648 TAP_TAPCELL_ROW_61_558
*1649 TAP_TAPCELL_ROW_61_559
*1650 TAP_TAPCELL_ROW_61_560
*1651 TAP_TAPCELL_ROW_61_561
*1652 TAP_TAPCELL_ROW_61_562
*1653 TAP_TAPCELL_ROW_61_563
*1654 TAP_TAPCELL_ROW_61_564
*1655 TAP_TAPCELL_ROW_61_565
*1656 TAP_TAPCELL_ROW_61_566
*1657 TAP_TAPCELL_ROW_62_567
*1658 TAP_TAPCELL_ROW_62_568
*1659 TAP_TAPCELL_ROW_62_569
*1660 TAP_TAPCELL_ROW_62_570
*1661 TAP_TAPCELL_ROW_62_571
*1662 TAP_TAPCELL_ROW_62_572
*1663 TAP_TAPCELL_ROW_62_573
*1664 TAP_TAPCELL_ROW_62_574
*1665 TAP_TAPCELL_ROW_62_575
*1666 TAP_TAPCELL_ROW_63_576
*1667 TAP_TAPCELL_ROW_63_577
*1668 TAP_TAPCELL_ROW_63_578
*1669 TAP_TAPCELL_ROW_63_579
*1670 TAP_TAPCELL_ROW_63_580
*1671 TAP_TAPCELL_ROW_63_581
*1672 TAP_TAPCELL_ROW_63_582
*1673 TAP_TAPCELL_ROW_63_583
*1674 TAP_TAPCELL_ROW_63_584
*1675 TAP_TAPCELL_ROW_64_585