*SPEF "ieee 1481-1999"
*DESIGN "simon128_cipher"
*DATE "08:14:25 Tuesday July 07, 2026"
*VENDOR "The OpenROAD Project"
*PROGRAM "OpenROAD"
*VERSION "26Q1-1392-g93cb34c5d4"
*DESIGN_FLOW "NAME_SCOPE LOCAL" "PIN_CAP NONE"
*DIVIDER /
*DELIMITER :
*BUS_DELIMITER []
*T_UNIT 1 NS
*C_UNIT 1 PF
*R_UNIT 1 OHM
*L_UNIT 1 HENRY

*NAME_MAP
*1 _0000_
*2 _0001_
*3 _0002_
*4 _0003_
*5 _0004_
*6 _0005_
*7 _0006_
*8 _0007_
*9 _0008_
*10 _0009_
*11 _0010_
*12 _0011_
*13 _0012_
*14 _0013_
*15 _0014_
*16 _0015_
*17 _0016_
*18 _0017_
*19 _0018_
*20 _0019_
*21 _0020_
*22 _0021_
*23 _0022_
*24 _0023_
*25 _0024_
*26 _0025_
*27 _0026_
*28 _0027_
*29 _0028_
*30 _0029_
*31 _0030_
*32 _0031_
*33 _0032_
*34 _0033_
*35 _0034_
*36 _0035_
*37 _0036_
*38 _0037_
*39 _0038_
*40 _0039_
*41 _0040_
*42 _0041_
*43 _0042_
*44 _0043_
*45 _0044_
*46 _0045_
*47 _0046_
*48 _0047_
*49 _0048_
*50 _0049_
*51 _0050_
*52 _0051_
*53 _0052_
*54 _0053_
*55 _0054_
*56 _0055_
*57 _0056_
*58 _0057_
*59 _0058_
*60 _0059_
*61 _0060_
*62 _0061_
*63 _0062_
*64 _0063_
*65 _0064_
*66 _0065_
*67 _0066_
*68 _0067_
*69 _0068_
*70 _0069_
*71 _0070_
*72 _0071_
*73 _0072_
*74 _0073_
*75 _0074_
*76 _0075_
*77 _0076_
*78 _0077_
*79 _0078_
*80 _0079_
*81 _0080_
*82 _0081_
*83 _0082_
*84 _0083_
*85 _0084_
*86 _0085_
*87 _0086_
*88 _0087_
*89 _0088_
*90 _0089_
*91 _0090_
*92 _0091_
*93 _0092_
*94 _0093_
*95 _0094_
*96 _0095_
*97 _0096_
*98 _0097_
*99 _0098_
*100 _0099_
*101 _0100_
*102 _0101_
*103 _0102_
*104 _0103_
*105 _0104_
*106 _0105_
*107 _0106_
*108 _0107_
*109 _0108_
*110 _0109_
*111 _0110_
*112 _0111_
*113 _0112_
*114 _0113_
*115 _0114_
*116 _0115_
*117 _0116_
*118 _0117_
*119 _0118_
*120 _0119_
*121 _0120_
*122 _0121_
*123 _0122_
*124 _0123_
*125 _0124_
*126 _0125_
*127 _0126_
*128 _0127_
*129 _0128_
*130 _0129_
*131 _0130_
*132 _0131_
*133 _0132_
*134 _0133_
*135 _0134_
*136 _0135_
*137 _0136_
*138 _0137_
*139 _0138_
*140 _0139_
*141 _0140_
*142 _0141_
*143 _0142_
*144 _0143_
*145 _0144_
*146 _0145_
*147 _0146_
*148 _0147_
*149 _0148_
*150 _0149_
*151 _0150_
*152 _0151_
*153 _0152_
*154 _0153_
*155 _0154_
*156 _0155_
*157 _0156_
*158 _0157_
*159 _0158_
*160 _0159_
*161 _0160_
*162 _0161_
*163 _0162_
*164 _0163_
*165 _0164_
*166 _0165_
*167 _0166_
*168 _0167_
*169 _0168_
*170 _0169_
*171 _0170_
*172 _0171_
*173 _0172_
*174 _0173_
*175 _0174_
*176 _0175_
*177 _0176_
*178 _0177_
*179 _0178_
*180 _0179_
*181 _0180_
*182 _0181_
*183 _0182_
*184 _0183_
*185 _0184_
*186 _0185_
*187 _0186_
*188 _0187_
*189 _0188_
*190 _0189_
*191 _0190_
*192 _0191_
*193 _0192_
*194 _0193_
*195 _0194_
*196 _0195_
*197 _0196_
*198 _0197_
*199 _0198_
*200 _0199_
*201 _0200_
*202 _0201_
*203 _0202_
*204 _0203_
*205 _0204_
*206 _0205_
*207 _0206_
*208 _0207_
*209 _0208_
*210 _0209_
*211 _0210_
*212 _0211_
*213 _0212_
*214 _0213_
*215 _0214_
*216 _0215_
*217 _0216_
*218 _0217_
*219 _0218_
*220 _0219_
*221 _0220_
*222 _0221_
*223 _0222_
*224 _0223_
*225 _0224_
*226 _0225_
*227 _0226_
*228 _0227_
*229 _0228_
*230 _0229_
*231 _0230_
*232 _0231_
*233 _0232_
*234 _0233_
*235 _0234_
*236 _0235_
*237 _0236_
*238 _0237_
*239 _0238_
*240 _0239_
*241 _0240_
*242 _0241_
*243 _0242_
*244 _0243_
*245 _0244_
*246 _0245_
*247 _0246_
*248 _0247_
*249 _0248_
*250 _0249_
*251 _0250_
*252 _0251_
*253 _0252_
*254 _0253_
*255 _0254_
*256 _0255_
*257 _0256_
*258 _0257_
*259 _0258_
*260 _0259_
*261 _0260_
*262 _0261_
*263 _0262_
*264 _0263_
*265 _0264_
*266 _0265_
*267 _0266_
*268 _0267_
*269 _0268_
*270 _0269_
*271 _0270_
*272 _0271_
*273 _0272_
*274 _0273_
*275 _0274_
*276 _0275_
*277 _0276_
*278 _0277_
*279 _0278_
*280 _0279_
*281 _0280_
*282 _0281_
*283 _0282_
*284 _0283_
*285 _0284_
*286 _0285_
*287 _0286_
*288 _0287_
*289 _0288_
*290 _0289_
*291 _0290_
*292 _0291_
*293 _0292_
*294 _0293_
*295 _0294_
*296 _0295_
*297 _0296_
*298 _0297_
*299 _0298_
*300 _0299_
*301 _0300_
*302 _0301_
*303 _0302_
*304 _0303_
*305 _0304_
*306 clknet_leaf_16_clk
*307 _0306_
*308 _0307_
*309 _0308_
*310 _0309_
*311 _0310_
*312 _0311_
*313 _0312_
*314 _0313_
*315 _0314_
*316 _0315_
*317 _0316_
*318 _0317_
*319 _0318_
*320 _0319_
*321 _0320_
*322 clknet_leaf_15_clk
*323 _0322_
*324 _0323_
*325 _0324_
*326 _0325_
*327 _0326_
*328 _0327_
*329 _0328_
*330 clknet_leaf_14_clk
*331 clknet_leaf_13_clk
*332 _0331_
*333 _0332_
*334 _0333_
*335 clknet_leaf_12_clk
*336 _0335_
*337 _0336_
*338 _0337_
*339 _0338_
*340 _0339_
*341 _0340_
*342 _0341_
*343 clknet_leaf_11_clk
*344 _0343_
*345 _0344_
*346 _0345_
*347 clknet_leaf_10_clk
*348 _0347_
*349 _0348_
*350 _0349_
*351 _0350_
*352 _0351_
*353 _0352_
*354 _0353_
*355 clknet_leaf_9_clk
*356 _0355_
*357 _0356_
*358 _0357_
*359 clknet_leaf_8_clk
*360 _0359_
*361 _0360_
*362 _0361_
*363 _0362_
*364 _0363_
*365 _0364_
*366 _0365_
*367 clknet_leaf_7_clk
*368 _0367_
*369 _0368_
*370 _0369_
*371 clknet_leaf_6_clk
*372 _0371_
*373 _0372_
*374 _0373_
*375 _0374_
*376 _0375_
*377 _0376_
*378 _0377_
*379 clknet_leaf_5_clk
*380 _0379_
*381 _0380_
*382 _0381_
*383 clknet_leaf_4_clk
*384 _0383_
*385 _0384_
*386 _0385_
*387 _0386_
*388 _0387_
*389 _0388_
*390 _0389_
*391 clknet_leaf_3_clk
*392 _0391_
*393 _0392_
*394 _0393_
*395 clknet_leaf_2_clk
*396 _0395_
*397 _0396_
*398 _0397_
*399 _0398_
*400 _0399_
*401 _0400_
*402 _0401_
*403 _0402_
*404 clknet_leaf_1_clk
*405 _0404_
*406 _0405_
*407 _0406_
*408 _0407_
*409 _0408_
*410 _0409_
*411 _0410_
*412 net20
*413 _0412_
*414 _0413_
*415 _0414_
*416 net18
*417 _0416_
*418 _0417_
*419 _0418_
*420 _0419_
*421 _0420_
*422 _0421_
*423 _0422_
*424 net17
*425 _0424_
*426 _0425_
*427 _0426_
*428 net16
*429 _0428_
*430 _0429_
*431 _0430_
*432 _0431_
*433 _0432_
*434 _0433_
*435 _0434_
*436 clknet_leaf_0_clk
*437 _0436_
*438 _0437_
*439 _0438_
*440 net19
*441 _0440_
*442 _0441_
*443 _0442_
*444 _0443_
*445 _0444_
*446 _0445_
*447 _0446_
*448 valid
*449 _0448_
*450 _0449_
*451 _0450_
*452 cipher_out
*453 _0452_
*454 _0453_
*455 _0454_
*456 _0455_
*457 _0456_
*458 _0457_
*459 _0458_
*460 rst_n
*461 _0460_
*462 _0461_
*463 _0462_
*464 data_rdy[1]
*465 _0464_
*466 _0465_
*467 _0466_
*468 _0467_
*469 _0468_
*470 _0469_
*471 _0470_
*472 data_rdy[0]
*473 _0472_
*474 _0473_
*475 _0474_
*476 _0475_
*477 _0476_
*478 _0477_
*479 _0478_
*480 _0479_
*481 _0480_
*482 _0481_
*483 _0482_
*484 _0483_
*485 _0484_
*486 _0485_
*487 _0486_
*495 _0494_
*498 _0497_
*499 _0498_
*502 _0501_
*503 _0502_
*506 _0505_
*507 _0506_
*508 _0507_
*509 _0508_
*511 _0510_
*512 _0511_
*513 _0512_
*514 _0513_
*515 _0514_
*516 _0515_
*517 _0516_
*518 _0517_
*519 _0518_
*520 _0519_
*521 _0520_
*522 _0521_
*523 _0522_
*524 _0523_
*525 _0524_
*526 _0525_
*527 _0526_
*528 _0527_
*529 _0528_
*530 _0529_
*531 _0530_
*532 _0531_
*533 _0532_
*534 _0533_
*535 _0534_
*536 _0535_
*537 _0536_
*538 _0537_
*539 _0538_
*540 _0539_
*543 _0542_
*544 _0543_
*545 _0544_
*546 _0545_
*547 _0546_
*548 _0547_
*549 _0548_
*550 _0549_
*551 _0550_
*552 _0551_
*555 _0554_
*556 _0555_
*557 _0556_
*558 _0557_
*559 _0558_
*560 _0559_
*561 _0560_
*562 _0561_
*563 _0562_
*564 _0563_
*568 _0567_
*569 _0568_
*570 _0569_
*571 _0570_
*572 _0571_
*573 _0572_
*574 _0573_
*575 _0574_
*576 _0575_
*577 _0576_
*581 _0580_
*582 _0581_
*583 _0582_
*584 _0583_
*585 _0584_
*586 _0585_
*587 _0586_
*588 _0587_
*589 _0588_
*590 _0589_
*593 _0592_
*594 _0593_
*595 _0594_
*596 _0595_
*597 _0596_
*598 _0597_
*599 _0598_
*600 _0599_
*601 _0600_
*602 _0601_
*603 _0602_
*604 _0603_
*605 _0604_
*607 _0606_
*608 _0607_
*611 _0610_
*612 _0611_
*613 _0612_
*614 _0613_
*615 _0614_
*616 _0615_
*617 _0616_
*618 _0617_
*619 _0618_
*620 _0619_
*623 _0622_
*624 _0623_
*625 _0624_
*626 _0625_
*627 _0626_
*628 _0627_
*629 _0628_
*630 _0629_
*631 _0630_
*632 _0631_
*635 _0634_
*636 _0635_
*637 _0636_
*638 _0637_
*639 _0638_
*640 _0639_
*641 _0640_
*642 _0641_
*643 _0642_
*644 _0643_
*646 clknet_1_1__leaf_clk
*647 _0646_
*648 _0647_
*649 _0648_
*650 _0649_
*651 _0650_
*652 _0651_
*653 _0652_
*654 _0653_
*655 _0654_
*656 _0655_
*657 clknet_1_0__leaf_clk
*658 clknet_0_clk
*659 _0658_
*660 _0659_
*661 _0660_
*662 _0661_
*663 _0662_
*664 _0663_
*665 _0664_
*666 _0665_
*667 _0666_
*668 _0667_
*669 clknet_leaf_25_clk
*670 clknet_leaf_24_clk
*671 _0670_
*672 _0671_
*673 _0672_
*674 _0673_
*675 _0674_
*676 _0675_
*677 _0676_
*678 _0677_
*679 _0678_
*680 _0679_
*681 clknet_leaf_23_clk
*682 _0681_
*683 _0682_
*684 _0683_
*685 _0684_
*686 _0685_
*687 _0686_
*688 _0687_
*689 _0688_
*690 _0689_
*691 _0690_
*692 clknet_leaf_22_clk
*693 _0692_
*694 _0693_
*695 _0694_
*696 _0695_
*697 clknet_leaf_21_clk
*698 _0697_
*699 _0698_
*700 _0699_
*701 _0700_
*702 clknet_leaf_20_clk
*703 _0702_
*704 clknet_leaf_19_clk
*705 _0704_
*706 clknet_leaf_18_clk
*707 _0706_
*708 _0707_
*709 clknet_leaf_17_clk
*710 _0709_
*711 _0710_
*712 _0711_
*713 _0712_
*714 _0713_
*715 _0714_
*716 _0715_
*717 _0716_
*718 _0717_
*719 _0718_
*720 _0719_
*721 _0720_
*722 _0721_
*723 _0722_
*724 _0723_
*725 _0724_
*726 _0725_
*727 _0726_
*728 _0727_
*729 _0728_
*730 _0729_
*731 _0730_
*732 _0731_
*733 _0732_
*734 _0733_
*735 _0734_
*736 _0735_
*737 _0736_
*738 _0737_
*739 _0738_
*740 _0739_
*741 _0740_
*742 _0741_
*743 _0742_
*744 _0743_
*745 _0744_
*746 _0745_
*747 _0746_
*748 _0747_
*749 _0748_
*750 _0749_
*751 _0750_
*752 _0751_
*754 net5
*755 clk
*756 core\.bit_counter\[0\]
*757 core\.bit_counter\[1\]
*758 core\.bit_counter\[2\]
*759 core\.bit_counter\[3\]
*760 core\.bit_counter\[4\]
*761 core\.bit_counter\[5\]
*762 core\.datapath\.fifo_ff56
*763 core\.datapath\.fifo_ff57
*764 core\.datapath\.fifo_ff58
*765 core\.datapath\.fifo_ff59
*766 core\.datapath\.fifo_ff60
*767 core\.datapath\.fifo_ff61
*768 core\.datapath\.fifo_ff62
*769 core\.datapath\.fifo_ff63
*770 core\.datapath\.key_in
*771 core\.datapath\.lut_ff56
*772 core\.datapath\.lut_ff57
*773 core\.datapath\.lut_ff58
*774 core\.datapath\.lut_ff59
*775 core\.datapath\.lut_ff60
*776 core\.datapath\.lut_ff61
*777 core\.datapath\.lut_ff62
*778 core\.datapath\.lut_ff63
*779 core\.datapath\.round_counter\[0\]
*780 core\.datapath\.round_counter\[1\]
*781 core\.datapath\.round_counter\[2\]
*782 core\.datapath\.round_counter\[3\]
*783 core\.datapath\.round_counter\[4\]
*784 core\.datapath\.round_counter\[5\]
*785 core\.datapath\.round_counter\[6\]
*786 core\.datapath\.shift_in2
*787 core\.datapath\.shifter1\[10\]
*788 core\.datapath\.shifter1\[11\]
*789 core\.datapath\.shifter1\[12\]
*790 core\.datapath\.shifter1\[13\]
*791 core\.datapath\.shifter1\[14\]
*792 core\.datapath\.shifter1\[15\]
*793 core\.datapath\.shifter1\[16\]
*794 core\.datapath\.shifter1\[17\]
*795 core\.datapath\.shifter1\[18\]
*796 core\.datapath\.shifter1\[19\]
*797 core\.datapath\.shifter1\[1\]
*798 core\.datapath\.shifter1\[20\]
*799 core\.datapath\.shifter1\[21\]
*800 core\.datapath\.shifter1\[22\]
*801 core\.datapath\.shifter1\[23\]
*802 core\.datapath\.shifter1\[24\]
*803 core\.datapath\.shifter1\[25\]
*804 core\.datapath\.shifter1\[26\]
*805 core\.datapath\.shifter1\[27\]
*806 core\.datapath\.shifter1\[28\]
*807 core\.datapath\.shifter1\[29\]
*808 core\.datapath\.shifter1\[2\]
*809 core\.datapath\.shifter1\[30\]
*810 core\.datapath\.shifter1\[31\]
*811 core\.datapath\.shifter1\[32\]
*812 core\.datapath\.shifter1\[33\]
*813 core\.datapath\.shifter1\[34\]
*814 core\.datapath\.shifter1\[35\]
*815 core\.datapath\.shifter1\[36\]
*816 core\.datapath\.shifter1\[37\]
*817 core\.datapath\.shifter1\[38\]
*818 core\.datapath\.shifter1\[39\]
*819 core\.datapath\.shifter1\[3\]
*820 core\.datapath\.shifter1\[40\]
*821 core\.datapath\.shifter1\[41\]
*822 core\.datapath\.shifter1\[42\]
*823 core\.datapath\.shifter1\[43\]
*824 core\.datapath\.shifter1\[44\]
*825 core\.datapath\.shifter1\[45\]
*826 core\.datapath\.shifter1\[46\]
*827 core\.datapath\.shifter1\[47\]
*828 core\.datapath\.shifter1\[48\]
*829 core\.datapath\.shifter1\[49\]
*830 core\.datapath\.shifter1\[4\]
*831 core\.datapath\.shifter1\[50\]
*832 core\.datapath\.shifter1\[51\]
*833 core\.datapath\.shifter1\[52\]
*834 core\.datapath\.shifter1\[53\]
*835 core\.datapath\.shifter1\[54\]
*836 core\.datapath\.shifter1\[55\]
*837 core\.datapath\.shifter1\[5\]
*838 core\.datapath\.shifter1\[6\]
*839 core\.datapath\.shifter1\[7\]
*840 core\.datapath\.shifter1\[8\]
*841 core\.datapath\.shifter1\[9\]
*842 core\.datapath\.shifter2\[10\]
*843 core\.datapath\.shifter2\[11\]
*844 core\.datapath\.shifter2\[12\]
*845 core\.datapath\.shifter2\[13\]
*846 core\.datapath\.shifter2\[14\]
*847 core\.datapath\.shifter2\[15\]
*848 core\.datapath\.shifter2\[16\]
*849 core\.datapath\.shifter2\[17\]
*850 core\.datapath\.shifter2\[18\]
*851 core\.datapath\.shifter2\[19\]
*852 core\.datapath\.shifter2\[1\]
*853 core\.datapath\.shifter2\[20\]
*854 core\.datapath\.shifter2\[21\]
*855 core\.datapath\.shifter2\[22\]
*856 core\.datapath\.shifter2\[23\]
*857 core\.datapath\.shifter2\[24\]
*858 core\.datapath\.shifter2\[25\]
*859 core\.datapath\.shifter2\[26\]
*860 core\.datapath\.shifter2\[27\]
*861 core\.datapath\.shifter2\[28\]
*862 core\.datapath\.shifter2\[29\]
*863 core\.datapath\.shifter2\[2\]
*864 core\.datapath\.shifter2\[30\]
*865 core\.datapath\.shifter2\[31\]
*866 core\.datapath\.shifter2\[32\]
*867 core\.datapath\.shifter2\[33\]
*868 core\.datapath\.shifter2\[34\]
*869 core\.datapath\.shifter2\[35\]
*870 core\.datapath\.shifter2\[36\]
*871 core\.datapath\.shifter2\[37\]
*872 core\.datapath\.shifter2\[38\]
*873 core\.datapath\.shifter2\[39\]
*874 core\.datapath\.shifter2\[3\]
*875 core\.datapath\.shifter2\[40\]
*876 core\.datapath\.shifter2\[41\]
*877 core\.datapath\.shifter2\[42\]
*878 core\.datapath\.shifter2\[43\]
*879 core\.datapath\.shifter2\[44\]
*880 core\.datapath\.shifter2\[45\]
*881 core\.datapath\.shifter2\[46\]
*882 core\.datapath\.shifter2\[47\]
*883 core\.datapath\.shifter2\[48\]
*884 core\.datapath\.shifter2\[49\]
*885 core\.datapath\.shifter2\[4\]
*886 core\.datapath\.shifter2\[50\]
*887 core\.datapath\.shifter2\[51\]
*888 core\.datapath\.shifter2\[52\]
*889 core\.datapath\.shifter2\[53\]
*890 core\.datapath\.shifter2\[54\]
*891 core\.datapath\.shifter2\[55\]
*892 core\.datapath\.shifter2\[56\]
*893 core\.datapath\.shifter2\[57\]
*894 core\.datapath\.shifter2\[58\]
*895 core\.datapath\.shifter2\[59\]
*896 core\.datapath\.shifter2\[5\]
*897 core\.datapath\.shifter2\[60\]
*898 core\.datapath\.shifter2\[61\]
*899 core\.datapath\.shifter2\[62\]
*900 core\.datapath\.shifter2\[63\]
*901 core\.datapath\.shifter2\[6\]
*902 core\.datapath\.shifter2\[7\]
*903 core\.datapath\.shifter2\[8\]
*904 core\.datapath\.shifter2\[9\]
*905 core\.key_exp\.fifo_ff0
*906 core\.key_exp\.fifo_ff1
*907 core\.key_exp\.fifo_ff2
*908 core\.key_exp\.fifo_ff3
*909 core\.key_exp\.lut_ff0
*910 core\.key_exp\.lut_ff1
*911 core\.key_exp\.lut_ff2
*912 core\.key_exp\.lut_ff3
*913 core\.key_exp\.shift_out1
*914 core\.key_exp\.shifter1\[10\]
*915 core\.key_exp\.shifter1\[11\]
*916 core\.key_exp\.shifter1\[12\]
*917 core\.key_exp\.shifter1\[13\]
*918 core\.key_exp\.shifter1\[14\]
*919 core\.key_exp\.shifter1\[15\]
*920 core\.key_exp\.shifter1\[16\]
*921 core\.key_exp\.shifter1\[17\]
*922 core\.key_exp\.shifter1\[18\]
*923 core\.key_exp\.shifter1\[19\]
*924 core\.key_exp\.shifter1\[1\]
*925 core\.key_exp\.shifter1\[20\]
*926 core\.key_exp\.shifter1\[21\]
*927 core\.key_exp\.shifter1\[22\]
*928 core\.key_exp\.shifter1\[23\]
*929 core\.key_exp\.shifter1\[24\]
*930 core\.key_exp\.shifter1\[25\]
*931 core\.key_exp\.shifter1\[26\]
*932 core\.key_exp\.shifter1\[27\]
*933 core\.key_exp\.shifter1\[28\]
*934 core\.key_exp\.shifter1\[29\]
*935 core\.key_exp\.shifter1\[2\]
*936 core\.key_exp\.shifter1\[30\]
*937 core\.key_exp\.shifter1\[31\]
*938 core\.key_exp\.shifter1\[32\]
*939 core\.key_exp\.shifter1\[33\]
*940 core\.key_exp\.shifter1\[34\]
*941 core\.key_exp\.shifter1\[35\]
*942 core\.key_exp\.shifter1\[36\]
*943 core\.key_exp\.shifter1\[37\]
*944 core\.key_exp\.shifter1\[38\]
*945 core\.key_exp\.shifter1\[39\]
*946 core\.key_exp\.shifter1\[3\]
*947 core\.key_exp\.shifter1\[40\]
*948 core\.key_exp\.shifter1\[41\]
*949 core\.key_exp\.shifter1\[42\]
*950 core\.key_exp\.shifter1\[43\]
*951 core\.key_exp\.shifter1\[44\]
*952 core\.key_exp\.shifter1\[45\]
*953 core\.key_exp\.shifter1\[46\]
*954 core\.key_exp\.shifter1\[47\]
*955 core\.key_exp\.shifter1\[48\]
*956 core\.key_exp\.shifter1\[49\]
*957 core\.key_exp\.shifter1\[4\]
*958 core\.key_exp\.shifter1\[50\]
*959 core\.key_exp\.shifter1\[51\]
*960 core\.key_exp\.shifter1\[52\]
*961 core\.key_exp\.shifter1\[53\]
*962 core\.key_exp\.shifter1\[54\]
*963 core\.key_exp\.shifter1\[55\]
*964 core\.key_exp\.shifter1\[56\]
*965 core\.key_exp\.shifter1\[57\]
*966 core\.key_exp\.shifter1\[58\]
*967 core\.key_exp\.shifter1\[59\]
*968 core\.key_exp\.shifter1\[5\]
*969 core\.key_exp\.shifter1\[6\]
*970 core\.key_exp\.shifter1\[7\]
*971 core\.key_exp\.shifter1\[8\]
*972 core\.key_exp\.shifter1\[9\]
*973 core\.key_exp\.shifter2\[10\]
*974 core\.key_exp\.shifter2\[11\]
*975 core\.key_exp\.shifter2\[12\]
*976 core\.key_exp\.shifter2\[13\]
*977 core\.key_exp\.shifter2\[14\]
*978 core\.key_exp\.shifter2\[15\]
*979 core\.key_exp\.shifter2\[16\]
*980 core\.key_exp\.shifter2\[17\]
*981 core\.key_exp\.shifter2\[18\]
*982 core\.key_exp\.shifter2\[19\]
*983 core\.key_exp\.shifter2\[1\]
*984 core\.key_exp\.shifter2\[20\]
*985 core\.key_exp\.shifter2\[21\]
*986 core\.key_exp\.shifter2\[22\]
*987 core\.key_exp\.shifter2\[23\]
*988 core\.key_exp\.shifter2\[24\]
*989 core\.key_exp\.shifter2\[25\]
*990 core\.key_exp\.shifter2\[26\]
*991 core\.key_exp\.shifter2\[27\]
*992 core\.key_exp\.shifter2\[28\]
*993 core\.key_exp\.shifter2\[29\]
*994 core\.key_exp\.shifter2\[2\]
*995 core\.key_exp\.shifter2\[30\]
*996 core\.key_exp\.shifter2\[31\]
*997 core\.key_exp\.shifter2\[32\]
*998 core\.key_exp\.shifter2\[33\]
*999 core\.key_exp\.shifter2\[34\]
*1000 core\.key_exp\.shifter2\[35\]
*1001 core\.key_exp\.shifter2\[36\]
*1002 core\.key_exp\.shifter2\[37\]
*1003 core\.key_exp\.shifter2\[38\]
*1004 core\.key_exp\.shifter2\[39\]
*1005 core\.key_exp\.shifter2\[3\]
*1006 core\.key_exp\.shifter2\[40\]
*1007 core\.key_exp\.shifter2\[41\]
*1008 core\.key_exp\.shifter2\[42\]
*1009 core\.key_exp\.shifter2\[43\]
*1010 core\.key_exp\.shifter2\[44\]
*1011 core\.key_exp\.shifter2\[45\]
*1012 core\.key_exp\.shifter2\[46\]
*1013 core\.key_exp\.shifter2\[47\]
*1014 core\.key_exp\.shifter2\[48\]
*1015 core\.key_exp\.shifter2\[49\]
*1016 core\.key_exp\.shifter2\[4\]
*1017 core\.key_exp\.shifter2\[50\]
*1018 core\.key_exp\.shifter2\[51\]
*1019 core\.key_exp\.shifter2\[52\]
*1020 core\.key_exp\.shifter2\[53\]
*1021 core\.key_exp\.shifter2\[54\]
*1022 core\.key_exp\.shifter2\[55\]
*1023 core\.key_exp\.shifter2\[56\]
*1024 core\.key_exp\.shifter2\[57\]
*1025 core\.key_exp\.shifter2\[58\]
*1026 core\.key_exp\.shifter2\[59\]
*1027 core\.key_exp\.shifter2\[5\]
*1028 core\.key_exp\.shifter2\[60\]
*1029 core\.key_exp\.shifter2\[61\]
*1030 core\.key_exp\.shifter2\[62\]
*1031 core\.key_exp\.shifter2\[63\]
*1032 core\.key_exp\.shifter2\[6\]
*1033 core\.key_exp\.shifter2\[7\]
*1034 core\.key_exp\.shifter2\[8\]
*1035 core\.key_exp\.shifter2\[9\]
*1036 data_in
*1037 net1
*1038 net2
*1039 net3
*1040 net4
*1041 net6
*1042 net
*1043 FILLER_0_55
*1044 _0754_
*1045 FILLER_0_47
*1046 FILLER_0_39
*1047 _0757_
*1048 FILLER_0_31
*1049 _0759_
*1050 _0760_
*1051 FILLER_0_28
*1052 _0762_
*1053 _0763_
*1054 FILLER_0_24
*1055 FILLER_0_16
*1056 _0766_
*1057 FILLER_0_8
*1058 FILLER_0_0
*1059 _0769_
*1060 _0770_
*1061 clkload24
*1062 _0772_
*1063 clkload23
*1064 _0774_
*1065 _0775_
*1066 _0776_
*1067 clkload22
*1068 clkload21
*1069 _0779_
*1070 _0780_
*1071 _0781_
*1072 _0782_
*1073 clkload20
*1074 _0784_
*1075 _0785_
*1076 _0786_
*1077 _0787_
*1078 _0788_
*1079 _0789_
*1080 _0790_
*1081 _0791_
*1082 _0792_
*1083 _0793_
*1084 _0794_
*1085 _0795_
*1086 _0796_
*1087 _0797_
*1088 _0798_
*1089 _0799_
*1090 _0800_
*1091 _0801_
*1092 _0802_
*1093 _0803_
*1094 _0804_
*1095 _0805_
*1096 _0806_
*1097 _0807_
*1098 _0808_
*1099 _0809_
*1100 _0810_
*1101 _0811_
*1102 _0812_
*1103 _0813_
*1104 _0814_
*1105 _0815_
*1106 _0816_
*1107 _0817_
*1108 _0818_
*1109 _0819_
*1110 _0820_
*1111 _0821_
*1112 _0822_
*1113 _0823_
*1114 _0824_
*1115 _0825_
*1116 _0826_
*1117 _0827_
*1118 _0828_
*1119 _0829_
*1120 _0830_
*1121 _0831_
*1122 _0832_
*1123 _0833_
*1124 _0834_
*1125 clkload19
*1126 clkload18
*1127 _0837_
*1128 _0838_
*1129 _0839_
*1130 _0840_
*1131 _0841_
*1132 _0842_
*1133 _0843_
*1134 _0844_
*1135 _0845_
*1136 _0846_
*1137 _0847_
*1138 _0848_
*1139 _0849_
*1140 _0850_
*1141 _0851_
*1142 _0852_
*1143 _0853_
*1144 _0854_
*1145 _0855_
*1146 _0856_
*1147 clkload17
*1148 clkload16
*1149 _0859_
*1150 _0860_
*1151 _0861_
*1152 _0862_
*1153 _0863_
*1154 _0864_
*1155 _0865_
*1156 _0866_
*1157 _0867_
*1158 _0868_
*1159 _0869_
*1160 _0870_
*1161 _0871_
*1162 _0872_
*1163 _0873_
*1164 _0874_
*1165 _0875_
*1166 _0876_
*1167 _0877_
*1168 _0878_
*1169 clkload15
*1170 clkload14
*1171 clkload13
*1172 _0882_
*1173 _0883_
*1174 _0884_
*1175 _0885_
*1176 _0886_
*1177 _0887_
*1178 _0888_
*1179 _0889_
*1180 _0890_
*1181 _0891_
*1182 _0892_
*1183 _0893_
*1184 _0894_
*1185 _0895_
*1186 _0896_
*1187 _0897_
*1188 _0898_
*1189 _0899_
*1190 _0900_
*1191 _0901_
*1192 clkload12
*1193 clkload11
*1194 clkload10
*1195 _0905_
*1196 _0906_
*1197 _0907_
*1198 _0908_
*1199 _0909_
*1200 _0910_
*1201 _0911_
*1202 _0912_
*1203 _0913_
*1204 _0914_
*1205 _0915_
*1206 _0916_
*1207 _0917_
*1208 _0918_
*1209 _0919_
*1210 _0920_
*1211 _0921_
*1212 _0922_
*1213 _0923_
*1214 _0924_
*1215 clkload9
*1216 clkload8
*1217 _0927_
*1218 _0928_
*1219 _0929_
*1220 _0930_
*1221 _0931_
*1222 _0932_
*1223 _0933_
*1224 _0934_
*1225 _0935_
*1226 _0936_
*1227 _0937_
*1228 _0938_
*1229 _0939_
*1230 _0940_
*1231 _0941_
*1232 _0942_
*1233 _0943_
*1234 _0944_
*1235 _0945_
*1236 _0946_
*1237 _0947_
*1238 _0948_
*1239 clkload7
*1240 _0950_
*1241 _0951_
*1242 _0952_
*1243 _0953_
*1244 clkload6
*1245 clkload5
*1246 _0956_
*1247 _0957_
*1248 _0958_
*1249 _0959_
*1250 _0960_
*1251 _0961_
*1252 _0962_
*1253 _0963_
*1254 _0964_
*1255 _0965_
*1256 _0966_
*1257 _0967_
*1258 _0968_
*1259 _0969_
*1260 _0970_
*1261 _0971_
*1262 _0972_
*1263 _0973_
*1264 _0974_
*1265 _0975_
*1266 clkload4
*1267 clkload3
*1268 _0978_
*1269 _0979_
*1270 _0980_
*1271 _0981_
*1272 _0982_
*1273 _0983_
*1274 _0984_
*1275 _0985_
*1276 _0986_
*1277 _0987_
*1278 _0988_
*1279 _0989_
*1280 _0990_
*1281 _0991_
*1282 _0992_
*1283 _0993_
*1284 _0994_
*1285 _0995_
*1286 _0996_
*1287 _0997_
*1288 clkload2
*1289 clkload1
*1290 _1000_
*1291 _1001_
*1292 _1002_
*1293 _1003_
*1294 _1004_
*1295 _1005_
*1296 _1006_
*1297 _1007_
*1298 _1008_
*1299 _1009_
*1300 _1010_
*1301 _1011_
*1302 _1012_
*1303 _1013_
*1304 _1014_
*1305 _1015_
*1306 _1016_
*1307 _1017_
*1308 _1018_
*1309 _1019_
*1310 clkload0
*1311 clkbuf_1_1__f_clk
*1312 _1022_
*1313 _1023_
*1314 _1024_
*1315 _1025_
*1316 _1026_
*1317 _1027_
*1318 _1028_
*1319 _1029_
*1320 _1030_
*1321 _1031_
*1322 _1032_
*1323 _1033_
*1324 _1034_
*1325 _1035_
*1326 _1036_
*1327 _1037_
*1328 _1038_
*1329 _1039_
*1330 _1040_
*1331 _1041_
*1332 clkbuf_1_0__f_clk
*1333 clkbuf_0_clk
*1334 _1044_
*1335 _1045_
*1336 _1046_
*1337 _1047_
*1338 _1048_
*1339 _1049_
*1340 _1050_
*1341 _1051_
*1342 _1052_
*1343 _1053_
*1344 _1054_
*1345 _1055_
*1346 _1056_
*1347 _1057_
*1348 _1058_
*1349 _1059_
*1350 _1060_
*1351 _1061_
*1352 _1062_
*1353 _1063_
*1354 clkbuf_leaf_25_clk
*1355 clkbuf_leaf_24_clk
*1356 _1066_
*1357 _1067_
*1358 _1068_
*1359 _1069_
*1360 _1070_
*1361 _1071_
*1362 _1072_
*1363 _1073_
*1364 _1074_
*1365 _1075_
*1366 _1076_
*1367 _1077_
*1368 _1078_
*1369 _1079_
*1370 _1080_
*1371 _1081_
*1372 _1082_
*1373 _1083_
*1374 _1084_
*1375 _1085_
*1376 clkbuf_leaf_23_clk
*1377 _1087_
*1378 _1088_
*1379 _1089_
*1380 _1090_
*1381 _1091_
*1382 _1092_
*1383 _1093_
*1384 _1094_
*1385 _1095_
*1386 _1096_
*1387 _1097_
*1388 _1098_
*1389 _1099_
*1390 _1100_
*1391 _1101_
*1392 _1102_
*1393 _1103_
*1394 _1104_
*1395 _1105_
*1396 _1106_
*1397 clkbuf_leaf_22_clk
*1398 _1108_
*1399 _1109_
*1400 _1110_
*1401 _1111_
*1402 _1112_
*1403 _1113_
*1404 clkbuf_leaf_21_clk
*1405 _1115_
*1406 _1116_
*1407 _1117_
*1408 _1118_
*1409 _1119_
*1410 _1120_
*1411 _1121_
*1412 clkbuf_leaf_20_clk
*1413 _1123_
*1414 clkbuf_leaf_19_clk
*1415 _1125_
*1416 clkbuf_leaf_18_clk
*1417 _1127_
*1418 _1128_
*1419 clkbuf_leaf_17_clk
*1420 _1130_
*1421 _1131_
*1422 _1132_
*1423 _1133_
*1424 _1134_
*1425 _1135_
*1426 _1136_
*1427 _1137_
*1428 _1138_
*1429 _1139_
*1430 _1140_
*1431 _1141_
*1432 _1142_
*1433 _1143_
*1434 _1144_
*1435 _1145_
*1436 _1146_
*1437 _1147_
*1438 _1148_
*1439 _1149_
*1440 _1150_
*1441 _1151_
*1442 _1152_
*1443 _1153_
*1444 _1154_
*1445 _1155_
*1446 _1156_
*1447 _1157_
*1448 _1158_
*1449 _1159_
*1450 _1160_
*1451 _1161_
*1452 _1162_
*1453 _1163_
*1454 _1164_
*1455 _1165_
*1456 _1166_
*1457 _1167_
*1458 _1168_
*1459 _1169_
*1460 _1170_
*1461 _1171_
*1462 _1172_
*1463 _1173_
*1464 clkbuf_leaf_16_clk
*1465 _1175_
*1466 _1176_
*1467 _1177_
*1468 _1178_
*1469 _1179_
*1470 _1180_
*1471 _1181_
*1472 _1182_
*1473 _1183_
*1474 _1184_
*1475 _1185_
*1476 _1186_
*1477 _1187_
*1478 _1188_
*1479 _1189_
*1480 _1190_
*1481 _1191_
*1482 _1192_
*1483 _1193_
*1484 _1194_
*1485 clkbuf_leaf_15_clk
*1486 _1196_
*1487 _1197_
*1488 _1198_
*1489 _1199_
*1490 _1200_
*1491 _1201_
*1492 _1202_
*1493 _1203_
*1494 _1204_
*1495 _1205_
*1496 clkbuf_leaf_14_clk
*1497 clkbuf_leaf_13_clk
*1498 _1208_
*1499 _1209_
*1500 _1210_
*1501 _1211_
*1502 _1212_
*1503 _1213_
*1504 clkbuf_leaf_12_clk
*1505 _1215_
*1506 _1216_
*1507 _1217_
*1508 _1218_
*1509 _1219_
*1510 _1220_
*1511 _1221_
*1512 _1222_
*1513 _1223_
*1514 _1224_
*1515 _1225_
*1516 _1226_
*1517 _1227_
*1518 _1228_
*1519 clkbuf_leaf_11_clk
*1520 _1230_
*1521 _1231_
*1522 _1232_
*1523 _1233_
*1524 _1234_
*1525 _1235_
*1526 clkbuf_leaf_10_clk
*1527 _1237_
*1528 _1238_
*1529 _1239_
*1530 _1240_
*1531 _1241_
*1532 _1242_
*1533 _1243_
*1534 _1244_
*1535 _1245_
*1536 _1246_
*1537 _1247_
*1538 _1248_
*1539 _1249_
*1540 _1250_
*1541 clkbuf_leaf_9_clk
*1542 _1252_
*1543 _1253_
*1544 _1254_
*1545 _1255_
*1546 _1256_
*1547 _1257_
*1548 clkbuf_leaf_8_clk
*1549 _1259_
*1550 _1260_
*1551 _1261_
*1552 _1262_
*1553 _1263_
*1554 _1264_
*1555 _1265_
*1556 _1266_
*1557 _1267_
*1558 _1268_
*1559 _1269_
*1560 _1270_
*1561 _1271_
*1562 _1272_
*1563 clkbuf_leaf_7_clk
*1564 _1274_
*1565 _1275_
*1566 _1276_
*1567 _1277_
*1568 _1278_
*1569 _1279_
*1570 clkbuf_leaf_6_clk
*1571 _1281_
*1572 _1282_
*1573 _1283_
*1574 _1284_
*1575 _1285_
*1576 _1286_
*1577 _1287_
*1578 _1288_
*1579 _1289_
*1580 _1290_
*1581 _1291_
*1582 _1292_
*1583 _1293_
*1584 _1294_
*1585 clkbuf_leaf_5_clk
*1586 _1296_
*1587 _1297_
*1588 _1298_
*1589 _1299_
*1590 _1300_
*1591 _1301_
*1592 clkbuf_leaf_4_clk
*1593 _1303_
*1594 _1304_
*1595 _1305_
*1596 _1306_
*1597 _1307_
*1598 _1308_
*1599 _1309_
*1600 _1310_
*1601 _1311_
*1602 _1312_
*1603 _1313_
*1604 _1314_
*1605 _1315_
*1606 _1316_
*1607 clkbuf_leaf_3_clk
*1608 _1318_
*1609 _1319_
*1610 _1320_
*1611 _1321_
*1612 _1322_
*1613 _1323_
*1614 clkbuf_leaf_2_clk
*1615 _1325_
*1616 _1326_
*1617 _1327_
*1618 _1328_
*1619 _1329_
*1620 _1330_
*1621 _1331_
*1622 _1332_
*1623 _1333_
*1624 clkbuf_leaf_1_clk
*1625 _1335_
*1626 _1336_
*1627 _1337_
*1628 _1338_
*1629 _1339_
*1630 _1340_
*1631 _1341_
*1632 _1342_
*1633 _1343_
*1634 _1344_
*1635 _1345_
*1636 _1346_
*1637 _1347_
*1638 _1348_
*1639 place21
*1640 _1350_
*1641 _1351_
*1642 _1352_
*1643 _1353_
*1644 _1354_
*1645 _1355_
*1646 place19
*1647 _1357_
*1648 _1358_
*1649 _1359_
*1650 _1360_
*1651 _1361_
*1652 _1362_
*1653 _1363_
*1654 _1364_
*1655 _1365_
*1656 _1366_
*1657 _1367_
*1658 _1368_
*1659 _1369_
*1660 _1370_
*1661 place18
*1662 _1372_
*1663 _1373_
*1664 _1374_
*1665 _1375_
*1666 _1376_
*1667 _1377_
*1668 place17
*1669 _1379_
*1670 _1380_
*1671 _1381_
*1672 _1382_
*1673 _1383_
*1674 _1384_
*1675 _1385_
*1676 _1386_
*1677 _1387_
*1678 _1388_
*1679 _1389_
*1680 _1390_
*1681 _1391_
*1682 _1392_
*1683 clkbuf_leaf_0_clk
*1684 _1394_
*1685 _1395_
*1686 _1396_
*1687 _1397_
*1688 _1398_
*1689 _1399_
*1690 place20
*1691 _1401_
*1692 _1402_
*1693 _1403_
*1694 _1404_
*1695 _1405_
*1696 _1406_
*1697 _1407_
*1698 _1408_
*1699 _1409_
*1700 _1410_
*1701 _1411_
*1702 _1412_
*1703 _1413_
*1704 _1414_
*1705 output7
*1706 _1416_
*1707 _1417_
*1708 _1418_
*1709 _1419_
*1710 _1420_
*1711 _1421_
*1712 output6
*1713 _1423_
*1714 _1424_
*1715 _1425_
*1716 _1426_
*1717 _1427_
*1718 _1428_
*1719 _1429_
*1720 _1430_
*1721 _1431_
*1722 _1432_
*1723 _1433_
*1724 _1434_
*1725 _1435_
*1726 _1436_
*1727 input5
*1728 _1438_
*1729 _1439_
*1730 _1440_
*1731 _1441_
*1732 _1442_
*1733 _1443_
*1734 input4
*1735 _1445_
*1736 _1446_
*1737 _1447_
*1738 _1448_
*1739 _1449_
*1740 _1450_
*1741 _1451_
*1742 _1452_
*1743 _1453_
*1744 _1454_
*1745 _1455_
*1746 _1456_
*1747 _1457_
*1748 _1458_
*1749 input3
*1750 _1460_
*1751 _1461_
*1752 _1462_
*1753 _1463_
*1754 _1464_
*1755 _1465_
*1756 _1466_
*1757 _1467_
*1758 _1468_
*1759 _1469_
*1760 _1470_
*1761 _1471_
*1762 _1472_
*1763 _1473_
*1764 _1474_
*1765 _1475_
*1766 _1476_
*1767 _1477_
*1768 _1478_
*1769 _1479_
*1770 _1480_
*1771 _1481_
*1772 _1482_
*1773 _1483_
*1774 _1484_
*1775 _1485_
*1776 _1486_
*1777 _1487_
*1778 _1488_
*1779 _1489_
*1780 _1490_
*1781 _1491_
*1782 _1492_
*1783 _1493_
*1784 _1494_
*1785 _1495_
*1786 _1496_
*1787 TAP_TAPCELL_ROW_0_0
*1788 input2
*1789 core\.datapath\.bit_counter\[0\]\$_SDFFE_PP0P_
*1790 core\.datapath\.bit_counter\[1\]\$_SDFFE_PP0P_
*1791 core\.datapath\.bit_counter\[2\]\$_SDFFE_PP0P_
*1792 core\.datapath\.bit_counter\[3\]\$_SDFFE_PP0P_
*1793 core\.datapath\.bit_counter\[4\]\$_SDFFE_PP0P_
*1794 core\.datapath\.bit_counter\[5\]\$_SDFFE_PP0P_
*1795 core\.datapath\.fifo_ff56\$_SDFFE_PN0P_
*1796 core\.datapath\.fifo_ff57\$_SDFFE_PN0P_
*1797 core\.datapath\.fifo_ff58\$_SDFFE_PN0P_
*1798 core\.datapath\.fifo_ff59\$_SDFFE_PN0P_
*1799 core\.datapath\.fifo_ff60\$_SDFFE_PN0P_
*1800 core\.datapath\.fifo_ff61\$_SDFFE_PN0P_
*1801 core\.datapath\.fifo_ff62\$_SDFFE_PN0P_
*1802 core\.datapath\.fifo_ff63\$_SDFFE_PN0P_
*1803 core\.datapath\.lut_ff56\$_SDFF_PN0_
*1804 core\.datapath\.lut_ff57\$_SDFF_PN0_