*SPEF "ieee 1481-1999"
*DESIGN "cla4"
*DATE "07:56:16 Tuesday July 07, 2026"
*VENDOR "The OpenROAD Project"
*PROGRAM "OpenROAD"
*VERSION "26Q1-1392-g93cb34c5d4"
*DESIGN_FLOW "NAME_SCOPE LOCAL" "PIN_CAP NONE"
*DIVIDER /
*DELIMITER :
*BUS_DELIMITER []
*T_UNIT 1 NS
*C_UNIT 1 PF
*R_UNIT 1 OHM
*L_UNIT 1 HENRY

*NAME_MAP
*1 _00_
*2 _01_
*3 _02_
*4 _03_
*5 _04_
*6 _05_
*7 _06_
*8 _07_
*9 _08_
*10 _09_
*11 _10_
*12 _11_
*13 _12_
*14 _13_
*15 _14_
*16 _15_
*17 _16_
*18 _17_
*19 _18_
*20 _19_
*21 _20_
*22 _21_
*23 _22_
*24 _23_
*25 _24_
*26 _25_
*27 _26_
*28 _27_
*29 _28_
*30 _29_
*31 _30_
*32 _31_
*33 _32_
*34 _33_
*35 _34_
*36 _35_
*37 _36_
*38 _37_
*39 _38_
*40 _39_
*41 _40_
*42 net1
*43 net2
*44 net3
*45 net4
*46 net5
*47 net6
*48 net7
*49 net8
*50 net9
*51 clk
*52 net11
*53 co_w
*54 net10
*55 net12
*56 net13
*57 net14
*58 net15
*59 s_w\[0\]
*60 s_w\[1\]
*61 s_w\[2\]
*62 s_w\[3\]
*65 a[0]
*66 a[1]
*67 a[2]
*68 a[3]
*69 b[0]
*70 b[1]
*71 b[2]
*72 b[3]
*73 ci
*74 rst_n
*75 co
*76 s[0]
*77 s[1]
*78 s[2]
*79 s[3]
*80 clknet_0_clk
*81 clknet_1_0__leaf_clk
*82 clknet_1_1__leaf_clk
*83 _41_
*84 _42_
*85 _43_
*86 _44_
*87 _45_
*88 _46_
*89 _47_
*90 _48_
*91 _49_
*92 _50_
*93 _51_
*94 _52_
*95 _53_
*96 _54_
*97 _55_
*98 _56_
*99 _57_
*100 _58_
*101 _59_
*102 _60_
*103 _61_
*104 _62_
*105 _63_
*106 _64_
*107 _65_
*108 _66_
*109 _67_
*110 _68_
*111 _69_
*112 _70_
*113 _71_
*114 _72_
*115 _73_
*116 _74_
*117 _75_
*118 _76_
*119 co\$_DFF_PN0_
*120 s\[0\]\$_DFF_PN0_
*121 s\[1\]\$_DFF_PN0_
*122 s\[2\]\$_DFF_PN0_
*123 s\[3\]\$_DFF_PN0_
*124 TAP_TAPCELL_ROW_0_0
*125 TAP_TAPCELL_ROW_0_1
*126 TAP_TAPCELL_ROW_0_2
*127 TAP_TAPCELL_ROW_0_3
*128 TAP_TAPCELL_ROW_0_4
*129 TAP_TAPCELL_ROW_0_5
*130 TAP_TAPCELL_ROW_1_6
*131 TAP_TAPCELL_ROW_1_7
*132 TAP_TAPCELL_ROW_1_8
*133 TAP_TAPCELL_ROW_2_9
*134 TAP_TAPCELL_ROW_2_10
*135 TAP_TAPCELL_ROW_2_11
*136 TAP_TAPCELL_ROW_3_12
*137 TAP_TAPCELL_ROW_3_13
*138 TAP_TAPCELL_ROW_3_14
*139 TAP_TAPCELL_ROW_4_15
*140 TAP_TAPCELL_ROW_4_16
*141 TAP_TAPCELL_ROW_4_17
*142 TAP_TAPCELL_ROW_5_18
*143 TAP_TAPCELL_ROW_5_19
*144 TAP_TAPCELL_ROW_5_20
*145 TAP_TAPCELL_ROW_6_21
*146 TAP_TAPCELL_ROW_6_22
*147 TAP_TAPCELL_ROW_6_23
*148 TAP_TAPCELL_ROW_7_24
*149 TAP_TAPCELL_ROW_7_25
*150 TAP_TAPCELL_ROW_7_26
*151 TAP_TAPCELL_ROW_8_27
*152 TAP_TAPCELL_ROW_8_28
*153 TAP_TAPCELL_ROW_8_29
*154 TAP_TAPCELL_ROW_9_30
*155 TAP_TAPCELL_ROW_9_31
*156 TAP_TAPCELL_ROW_9_32
*157 TAP_TAPCELL_ROW_10_33
*158 TAP_TAPCELL_ROW_10_34
*159 TAP_TAPCELL_ROW_10_35
*160 TAP_TAPCELL_ROW_11_36
*161 TAP_TAPCELL_ROW_11_37
*162 TAP_TAPCELL_ROW_11_38
*163 TAP_TAPCELL_ROW_12_39
*164 TAP_TAPCELL_ROW_12_40
*165 TAP_TAPCELL_ROW_12_41
*166 TAP_TAPCELL_ROW_13_42
*167 TAP_TAPCELL_ROW_13_43
*168 TAP_TAPCELL_ROW_13_44
*169 TAP_TAPCELL_ROW_14_45
*170 TAP_TAPCELL_ROW_14_46
*171 TAP_TAPCELL_ROW_14_47
*172 TAP_TAPCELL_ROW_15_48
*173 TAP_TAPCELL_ROW_15_49
*174 TAP_TAPCELL_ROW_15_50
*175 TAP_TAPCELL_ROW_16_51
*176 TAP_TAPCELL_ROW_16_52
*177 TAP_TAPCELL_ROW_16_53
*178 TAP_TAPCELL_ROW_17_54
*179 TAP_TAPCELL_ROW_17_55
*180 TAP_TAPCELL_ROW_17_56
*181 TAP_TAPCELL_ROW_18_57
*182 TAP_TAPCELL_ROW_18_58
*183 TAP_TAPCELL_ROW_18_59
*184 TAP_TAPCELL_ROW_19_60
*185 TAP_TAPCELL_ROW_19_61
*186 TAP_TAPCELL_ROW_19_62
*187 TAP_TAPCELL_ROW_20_63
*188 TAP_TAPCELL_ROW_20_64
*189 TAP_TAPCELL_ROW_20_65
*190 TAP_TAPCELL_ROW_21_66
*191 TAP_TAPCELL_ROW_21_67
*192 TAP_TAPCELL_ROW_21_68
*193 TAP_TAPCELL_ROW_22_69
*194 TAP_TAPCELL_ROW_22_70
*195 TAP_TAPCELL_ROW_22_71
*196 TAP_TAPCELL_ROW_23_72
*197 TAP_TAPCELL_ROW_23_73
*198 TAP_TAPCELL_ROW_23_74
*199 TAP_TAPCELL_ROW_24_75
*200 TAP_TAPCELL_ROW_24_76
*201 TAP_TAPCELL_ROW_24_77
*202 TAP_TAPCELL_ROW_25_78
*203 TAP_TAPCELL_ROW_25_79
*204 TAP_TAPCELL_ROW_25_80
*205 TAP_TAPCELL_ROW_26_81
*206 TAP_TAPCELL_ROW_26_82
*207 TAP_TAPCELL_ROW_26_83
*208 TAP_TAPCELL_ROW_27_84
*209 TAP_TAPCELL_ROW_27_85
*210 TAP_TAPCELL_ROW_27_86
*211 TAP_TAPCELL_ROW_28_87
*212 TAP_TAPCELL_ROW_28_88
*213 TAP_TAPCELL_ROW_28_89
*214 TAP_TAPCELL_ROW_29_90
*215 TAP_TAPCELL_ROW_29_91
*216 TAP_TAPCELL_ROW_29_92
*217 TAP_TAPCELL_ROW_30_93
*218 TAP_TAPCELL_ROW_30_94
*219 TAP_TAPCELL_ROW_30_95
*220 TAP_TAPCELL_ROW_31_96
*221 TAP_TAPCELL_ROW_31_97
*222 TAP_TAPCELL_ROW_31_98
*223 TAP_TAPCELL_ROW_32_99
*224 TAP_TAPCELL_ROW_32_100
*225 TAP_TAPCELL_ROW_32_101
*226 TAP_TAPCELL_ROW_32_102
*227 TAP_TAPCELL_ROW_32_103
*228 TAP_TAPCELL_ROW_32_104
*229 input1
*230 input2
*231 input3
*232 input4
*233 input5
*234 input6
*235 input7
*236 input8
*237 input9
*238 input10
*239 output11
*240 output12
*241 output13
*242 output14
*243 output15
*244 clkbuf_0_clk
*245 clkbuf_1_0__f_clk
*246 clkbuf_1_1__f_clk
*247 clkload0
*248 FILLER_0_0
*249 FILLER_0_8
*250 FILLER_0_16
*251 FILLER_0_24
*252 FILLER_0_28
*253 FILLER_0_31
*254 FILLER_0_39
*255 FILLER_0_47
*256 FILLER_0_55
*257 FILLER_0_59
*258 FILLER_0_61
*259 FILLER_0_69
*260 FILLER_0_77
*261 FILLER_0_85
*262 FILLER_0_89
*263 FILLER_0_91
*264 FILLER_0_99
*265 FILLER_0_107
*266 FILLER_0_115
*267 FILLER_0_119
*268 FILLER_0_121
*269 FILLER_0_129
*270 FILLER_0_137
*271 FILLER_0_145
*272 FILLER_0_149
*273 FILLER_0_151
*274 FILLER_0_159
*275 FILLER_0_167
*276 FILLER_0_175
*277 FILLER_0_179
*278 FILLER_0_181
*279 FILLER_0_189
*280 FILLER_0_197
*281 FILLER_1_0
*282 FILLER_1_8
*283 FILLER_1_16
*284 FILLER_1_24
*285 FILLER_1_32
*286 FILLER_1_40
*287 FILLER_1_48
*288 FILLER_1_56
*289 FILLER_1_61
*290 FILLER_1_69
*291 FILLER_1_77
*292 FILLER_1_85
*293 FILLER_1_93
*294 FILLER_1_101
*295 FILLER_1_109
*296 FILLER_1_117
*297 FILLER_1_119
*298 FILLER_1_121
*299 FILLER_1_129
*300 FILLER_1_137
*301 FILLER_1_145
*302 FILLER_1_153
*303 FILLER_1_161
*304 FILLER_1_169
*305 FILLER_1_177
*306 FILLER_1_179
*307 FILLER_1_181
*308 FILLER_1_189
*309 FILLER_1_197
*310 FILLER_2_0
*311 FILLER_2_8
*312 FILLER_2_16
*313 FILLER_2_24
*314 FILLER_2_28
*315 FILLER_2_31
*316 FILLER_2_39
*317 FILLER_2_47
*318 FILLER_2_55
*319 FILLER_2_63
*320 FILLER_2_71
*321 FILLER_2_79
*322 FILLER_2_87
*323 FILLER_2_89
*324 FILLER_2_91
*325 FILLER_2_99
*326 FILLER_2_107
*327 FILLER_2_115
*328 FILLER_2_123
*329 FILLER_2_131
*330 FILLER_2_139
*331 FILLER_2_147
*332 FILLER_2_149
*333 FILLER_2_151
*334 FILLER_2_159
*335 FILLER_2_167
*336 FILLER_2_175
*337 FILLER_2_183
*338 FILLER_2_191
*339 FILLER_2_195
*340 FILLER_2_197
*341 FILLER_3_0
*342 FILLER_3_8
*343 FILLER_3_16
*344 FILLER_3_24
*345 FILLER_3_32
*346 FILLER_3_40
*347 FILLER_3_48
*348 FILLER_3_56
*349 FILLER_3_61
*350 FILLER_3_69
*351 FILLER_3_77
*352 FILLER_3_85
*353 FILLER_3_93
*354 FILLER_3_101
*355 FILLER_3_109
*356 FILLER_3_117
*357 FILLER_3_119
*358 FILLER_3_121
*359 FILLER_3_129
*360 FILLER_3_137
*361 FILLER_3_145
*362 FILLER_3_153
*363 FILLER_3_161
*364 FILLER_3_169
*365 FILLER_3_177
*366 FILLER_3_179
*367 FILLER_3_181
*368 FILLER_3_189
*369 FILLER_3_197
*370 FILLER_4_0
*371 FILLER_4_8
*372 FILLER_4_16
*373 FILLER_4_24
*374 FILLER_4_28
*375 FILLER_4_31
*376 FILLER_4_39
*377 FILLER_4_47
*378 FILLER_4_55
*379 FILLER_4_63
*380 FILLER_4_71
*381 FILLER_4_79
*382 FILLER_4_87
*383 FILLER_4_89
*384 FILLER_4_91
*385 FILLER_4_99
*386 FILLER_4_107
*387 FILLER_4_115
*388 FILLER_4_123
*389 FILLER_4_131
*390 FILLER_4_139
*391 FILLER_4_147
*392 FILLER_4_149
*393 FILLER_4_151
*394 FILLER_4_159
*395 FILLER_4_167
*396 FILLER_4_175
*397 FILLER_4_183
*398 FILLER_4_191
*399 FILLER_4_195
*400 FILLER_4_197
*401 FILLER_5_0
*402 FILLER_5_8
*403 FILLER_5_16
*404 FILLER_5_24
*405 FILLER_5_32
*406 FILLER_5_40
*407 FILLER_5_48
*408 FILLER_5_56
*409 FILLER_5_61
*410 FILLER_5_69
*411 FILLER_5_77
*412 FILLER_5_85
*413 FILLER_5_93
*414 FILLER_5_101
*415 FILLER_5_109
*416 FILLER_5_117
*417 FILLER_5_119
*418 FILLER_5_121
*419 FILLER_5_129
*420 FILLER_5_137
*421 FILLER_5_145
*422 FILLER_5_153
*423 FILLER_5_161
*424 FILLER_5_169
*425 FILLER_5_177
*426 FILLER_5_179
*427 FILLER_5_181
*428 FILLER_5_189
*429 FILLER_5_197
*430 FILLER_6_0
*431 FILLER_6_8
*432 FILLER_6_16
*433 FILLER_6_24
*434 FILLER_6_28
*435 FILLER_6_31
*436 FILLER_6_39
*437 FILLER_6_47
*438 FILLER_6_55
*439 FILLER_6_63
*440 FILLER_6_71
*441 FILLER_6_79
*442 FILLER_6_87
*443 FILLER_6_89
*444 FILLER_6_91
*445 FILLER_6_99
*446 FILLER_6_107
*447 FILLER_6_115
*448 FILLER_6_123
*449 FILLER_6_131
*450 FILLER_6_139
*451 FILLER_6_147
*452 FILLER_6_149
*453 FILLER_6_151
*454 FILLER_6_159
*455 FILLER_6_167
*456 FILLER_6_175
*457 FILLER_6_183
*458 FILLER_6_191
*459 FILLER_6_195
*460 FILLER_6_197
*461 FILLER_7_0
*462 FILLER_7_8
*463 FILLER_7_16
*464 FILLER_7_24
*465 FILLER_7_32
*466 FILLER_7_40
*467 FILLER_7_48
*468 FILLER_7_56
*469 FILLER_7_61
*470 FILLER_7_69
*471 FILLER_7_77
*472 FILLER_7_85
*473 FILLER_7_93
*474 FILLER_7_101
*475 FILLER_7_109
*476 FILLER_7_117
*477 FILLER_7_119
*478 FILLER_7_121
*479 FILLER_7_129
*480 FILLER_7_137
*481 FILLER_7_145
*482 FILLER_7_153
*483 FILLER_7_161
*484 FILLER_7_169
*485 FILLER_7_177
*486 FILLER_7_179
*487 FILLER_7_181
*488 FILLER_7_189
*489 FILLER_7_197
*490 FILLER_8_0
*491 FILLER_8_8
*492 FILLER_8_16
*493 FILLER_8_24
*494 FILLER_8_28
*495 FILLER_8_31
*496 FILLER_8_39
*497 FILLER_8_47
*498 FILLER_8_55
*499 FILLER_8_63
*500 FILLER_8_71
*501 FILLER_8_79
*502 FILLER_8_81
*503 FILLER_8_91
*504 FILLER_8_99
*505 FILLER_8_107
*506 FILLER_8_115
*507 FILLER_8_123
*508 FILLER_8_131
*509 FILLER_8_139
*510 FILLER_8_147
*511 FILLER_8_149
*512 FILLER_8_151
*513 FILLER_8_159
*514 FILLER_8_167
*515 FILLER_8_175
*516 FILLER_8_183
*517 FILLER_8_191
*518 FILLER_8_195
*519 FILLER_8_197
*520 FILLER_9_0
*521 FILLER_9_8
*522 FILLER_9_16
*523 FILLER_9_24
*524 FILLER_9_32
*525 FILLER_9_40
*526 FILLER_9_48
*527 FILLER_9_56
*528 FILLER_9_61
*529 FILLER_9_69
*530 FILLER_9_77
*531 FILLER_9_85
*532 FILLER_9_93
*533 FILLER_9_97
*534 FILLER_9_106
*535 FILLER_9_114
*536 FILLER_9_118
*537 FILLER_9_121
*538 FILLER_9_129
*539 FILLER_9_137
*540 FILLER_9_145
*541 FILLER_9_153
*542 FILLER_9_161
*543 FILLER_9_169
*544 FILLER_9_177
*545 FILLER_9_179
*546 FILLER_9_181
*547 FILLER_9_189
*548 FILLER_9_197
*549 FILLER_10_0
*550 FILLER_10_8
*551 FILLER_10_16
*552 FILLER_10_24
*553 FILLER_10_28
*554 FILLER_10_31
*555 FILLER_10_39
*556 FILLER_10_47
*557 FILLER_10_55
*558 FILLER_10_63
*559 FILLER_10_71
*560 FILLER_10_79
*561 FILLER_10_81
*562 FILLER_10_91
*563 FILLER_10_107
*564 FILLER_10_115
*565 FILLER_10_123
*566 FILLER_10_131
*567 FILLER_10_139
*568 FILLER_10_147
*569 FILLER_10_149
*570 FILLER_10_151
*571 FILLER_10_159
*572 FILLER_10_167
*573 FILLER_10_175
*574 FILLER_10_183
*575 FILLER_10_191
*576 FILLER_10_195
*577 FILLER_10_197
*578 FILLER_11_0
*579 FILLER_11_8
*580 FILLER_11_16
*581 FILLER_11_24
*582 FILLER_11_32
*583 FILLER_11_40
*584 FILLER_11_48
*585 FILLER_11_56
*586 FILLER_11_61
*587 FILLER_11_69
*588 FILLER_11_73
*589 FILLER_11_75
*590 FILLER_11_89
*591 FILLER_11_93
*592 FILLER_11_105
*593 FILLER_11_113
*594 FILLER_11_117
*595 FILLER_11_119
*596 FILLER_11_121
*597 FILLER_11_129
*598 FILLER_11_137
*599 FILLER_11_145
*600 FILLER_11_153
*601 FILLER_11_161
*602 FILLER_11_169
*603 FILLER_11_177
*604 FILLER_11_179
*605 FILLER_11_181
*606 FILLER_11_189
*607 FILLER_11_197
*608 FILLER_12_0
*609 FILLER_12_8
*610 FILLER_12_16
*611 FILLER_12_24
*612 FILLER_12_28
*613 FILLER_12_31
*614 FILLER_12_39
*615 FILLER_12_47
*616 FILLER_12_55
*617 FILLER_12_63
*618 FILLER_12_71
*619 FILLER_12_82
*620 FILLER_12_86
*621 FILLER_12_91
*622 FILLER_12_108
*623 FILLER_12_116
*624 FILLER_12_124
*625 FILLER_12_132
*626 FILLER_12_140
*627 FILLER_12_148
*628 FILLER_12_151
*629 FILLER_12_159
*630 FILLER_12_167
*631 FILLER_12_175
*632 FILLER_12_183
*633 FILLER_12_191
*634 FILLER_12_195
*635 FILLER_12_197
*636 FILLER_13_0
*637 FILLER_13_8
*638 FILLER_13_10
*639 FILLER_13_27
*640 FILLER_13_35
*641 FILLER_13_56
*642 FILLER_13_61
*643 FILLER_13_65
*644 FILLER_13_67
*645 FILLER_13_79
*646 FILLER_13_90
*647 FILLER_13_94
*648 FILLER_13_103
*649 FILLER_13_111
*650 FILLER_13_119
*651 FILLER_13_121
*652 FILLER_13_129
*653 FILLER_13_137
*654 FILLER_13_145
*655 FILLER_13_153
*656 FILLER_13_161
*657 FILLER_13_169
*658 FILLER_13_177
*659 FILLER_13_179
*660 FILLER_13_181
*661 FILLER_13_189
*662 FILLER_13_197
*663 FILLER_14_0
*664 FILLER_14_8
*665 FILLER_14_16
*666 FILLER_14_24
*667 FILLER_14_28
*668 FILLER_14_31
*669 FILLER_14_39
*670 FILLER_14_43
*671 FILLER_14_79
*672 FILLER_14_91
*673 FILLER_14_99
*674 FILLER_14_107
*675 FILLER_14_115
*676 FILLER_14_123
*677 FILLER_14_131
*678 FILLER_14_139
*679 FILLER_14_147
*680 FILLER_14_149
*681 FILLER_14_151
*682 FILLER_14_159
*683 FILLER_14_167
*684 FILLER_14_175
*685 FILLER_14_183
*686 FILLER_14_191
*687 FILLER_14_195
*688 FILLER_14_197
*689 FILLER_15_0
*690 FILLER_15_8
*691 FILLER_15_16
*692 FILLER_15_24
*693 FILLER_15_32
*694 FILLER_15_40
*695 FILLER_15_54
*696 FILLER_15_58
*697 FILLER_15_74
*698 FILLER_15_78
*699 FILLER_15_84
*700 FILLER_15_92
*701 FILLER_15_94
*702 FILLER_15_109
*703 FILLER_15_117
*704 FILLER_15_119
*705 FILLER_15_121
*706 FILLER_15_129
*707 FILLER_15_137
*708 FILLER_15_145
*709 FILLER_15_153
*710 FILLER_15_161
*711 FILLER_15_169
*712 FILLER_15_177
*713 FILLER_15_179
*714 FILLER_15_181
*715 FILLER_15_189
*716 FILLER_15_197
*717 FILLER_16_0
*718 FILLER_16_8
*719 FILLER_16_18
*720 FILLER_16_26
*721 FILLER_16_31
*722 FILLER_16_39
*723 FILLER_16_43
*724 FILLER_16_57
*725 FILLER_16_65
*726 FILLER_16_73
*727 FILLER_16_81
*728 FILLER_16_89
*729 FILLER_16_91
*730 FILLER_16_112
*731 FILLER_16_116
*732 FILLER_16_118
*733 FILLER_16_127
*734 FILLER_16_135
*735 FILLER_16_143
*736 FILLER_16_147
*737 FILLER_16_149
*738 FILLER_16_151
*739 FILLER_16_159
*740 FILLER_16_167
*741 FILLER_16_175
*742 FILLER_16_183
*743 FILLER_16_191
*744 FILLER_16_195
*745 FILLER_16_197
*746 FILLER_17_0
*747 FILLER_17_2
*748 FILLER_17_11
*749 FILLER_17_19
*750 FILLER_17_27
*751 FILLER_17_35
*752 FILLER_17_43
*753 FILLER_17_58
*754 FILLER_17_92
*755 FILLER_17_113
*756 FILLER_17_117
*757 FILLER_17_119
*758 FILLER_17_121
*759 FILLER_17_129
*760 FILLER_17_137
*761 FILLER_17_145
*762 FILLER_17_153
*763 FILLER_17_155
*764 FILLER_17_164
*765 FILLER_17_172
*766 FILLER_17_181
*767 FILLER_17_189
*768 FILLER_17_197
*769 FILLER_18_0
*770 FILLER_18_8
*771 FILLER_18_16
*772 FILLER_18_24
*773 FILLER_18_28
*774 FILLER_18_31
*775 FILLER_18_33
*776 FILLER_18_42
*777 FILLER_18_65
*778 FILLER_18_69
*779 FILLER_18_74
*780 FILLER_18_78
*781 FILLER_18_91
*782 FILLER_18_99
*783 FILLER_18_107
*784 FILLER_18_115
*785 FILLER_18_123
*786 FILLER_18_131
*787 FILLER_18_139
*788 FILLER_18_147
*789 FILLER_18_149
*790 FILLER_18_151
*791 FILLER_18_159
*792 FILLER_18_167
*793 FILLER_18_175
*794 FILLER_18_183
*795 FILLER_18_191
*796 FILLER_18_195
*797 FILLER_18_197
*798 FILLER_19_0
*799 FILLER_19_8
*800 FILLER_19_16
*801 FILLER_19_24
*802 FILLER_19_32
*803 FILLER_19_40
*804 FILLER_19_48
*805 FILLER_19_56
*806 FILLER_19_61
*807 FILLER_19_69
*808 FILLER_19_90
*809 FILLER_19_99
*810 FILLER_19_107
*811 FILLER_19_115
*812 FILLER_19_119
*813 FILLER_19_121
*814 FILLER_19_129
*815 FILLER_19_137
*816 FILLER_19_145
*817 FILLER_19_153
*818 FILLER_19_161
*819 FILLER_19_169
*820 FILLER_19_177
*821 FILLER_19_179
*822 FILLER_19_181
*823 FILLER_19_189
*824 FILLER_19_197
*825 FILLER_20_0
*826 FILLER_20_8
*827 FILLER_20_16
*828 FILLER_20_24
*829 FILLER_20_28
*830 FILLER_20_31
*831 FILLER_20_39
*832 FILLER_20_47
*833 FILLER_20_86
*834 FILLER_20_99
*835 FILLER_20_107
*836 FILLER_20_115
*837 FILLER_20_123
*838 FILLER_20_131
*839 FILLER_20_139
*840 FILLER_20_147
*841 FILLER_20_149
*842 FILLER_20_151
*843 FILLER_20_159
*844 FILLER_20_167
*845 FILLER_20_175
*846 FILLER_20_183
*847 FILLER_20_191
*848 FILLER_20_195
*849 FILLER_20_197
*850 FILLER_21_0
*851 FILLER_21_8
*852 FILLER_21_16
*853 FILLER_21_24
*854 FILLER_21_32
*855 FILLER_21_40
*856 FILLER_21_48
*857 FILLER_21_56
*858 FILLER_21_61
*859 FILLER_21_69
*860 FILLER_21_77
*861 FILLER_21_85
*862 FILLER_21_95
*863 FILLER_21_103
*864 FILLER_21_111
*865 FILLER_21_119
*866 FILLER_21_121
*867 FILLER_21_129
*868 FILLER_21_137
*869 FILLER_21_145
*870 FILLER_21_153
*871 FILLER_21_161
*872 FILLER_21_169
*873 FILLER_21_177
*874 FILLER_21_179
*875 FILLER_21_181
*876 FILLER_21_189
*877 FILLER_21_197
*878 FILLER_22_0
*879 FILLER_22_8
*880 FILLER_22_16
*881 FILLER_22_24
*882 FILLER_22_28
*883 FILLER_22_31
*884 FILLER_22_39
*885 FILLER_22_47
*886 FILLER_22_55
*887 FILLER_22_63
*888 FILLER_22_71
*889 FILLER_22_79
*890 FILLER_22_87
*891 FILLER_22_89
*892 FILLER_22_91
*893 FILLER_22_99
*894 FILLER_22_107
*895 FILLER_22_115
*896 FILLER_22_123
*897 FILLER_22_131
*898 FILLER_22_139
*899 FILLER_22_147
*900 FILLER_22_149
*901 FILLER_22_151
*902 FILLER_22_159
*903 FILLER_22_167
*904 FILLER_22_175
*905 FILLER_22_183
*906 FILLER_22_191
*907 FILLER_22_195
*908 FILLER_22_197
*909 FILLER_23_0
*910 FILLER_23_8
*911 FILLER_23_16
*912 FILLER_23_24
*913 FILLER_23_32
*914 FILLER_23_40
*915 FILLER_23_48
*916 FILLER_23_56
*917 FILLER_23_61
*918 FILLER_23_69
*919 FILLER_23_77
*920 FILLER_23_85
*921 FILLER_23_93
*922 FILLER_23_101
*923 FILLER_23_109
*924 FILLER_23_117
*925 FILLER_23_119
*926 FILLER_23_121
*927 FILLER_23_129
*928 FILLER_23_137
*929 FILLER_23_145
*930 FILLER_23_153
*931 FILLER_23_161
*932 FILLER_23_169
*933 FILLER_23_177
*934 FILLER_23_179
*935 FILLER_23_181
*936 FILLER_23_189
*937 FILLER_23_197
*938 FILLER_24_0
*939 FILLER_24_8
*940 FILLER_24_16
*941 FILLER_24_24
*942 FILLER_24_28
*943 FILLER_24_31
*944 FILLER_24_39
*945 FILLER_24_47
*946 FILLER_24_55
*947 FILLER_24_63
*948 FILLER_24_71
*949 FILLER_24_79
*950 FILLER_24_87
*951 FILLER_24_89
*952 FILLER_24_91
*953 FILLER_24_99
*954 FILLER_24_107
*955 FILLER_24_115
*956 FILLER_24_123
*957 FILLER_24_131
*958 FILLER_24_139
*959 FILLER_24_147
*960 FILLER_24_149
*961 FILLER_24_151
*962 FILLER_24_159
*963 FILLER_24_167
*964 FILLER_24_175
*965 FILLER_24_183
*966 FILLER_24_191
*967 FILLER_24_195
*968 FILLER_24_197
*969 FILLER_25_0
*970 FILLER_25_8
*971 FILLER_25_16
*972 FILLER_25_24
*973 FILLER_25_32
*974 FILLER_25_40
*975 FILLER_25_48
*976 FILLER_25_56
*977 FILLER_25_61
*978 FILLER_25_69
*979 FILLER_25_77
*980 FILLER_25_85
*981 FILLER_25_93
*982 FILLER_25_101
*983 FILLER_25_109
*984 FILLER_25_117
*985 FILLER_25_119
*986 FILLER_25_121
*987 FILLER_25_129
*988 FILLER_25_137
*989 FILLER_25_145
*990 FILLER_25_153
*991 FILLER_25_161
*992 FILLER_25_169
*993 FILLER_25_177
*994 FILLER_25_179
*995 FILLER_25_181
*996 FILLER_25_189
*997 FILLER_25_197
*998 FILLER_26_0
*999 FILLER_26_8
*1000 FILLER_26_16
*1001 FILLER_26_24
*1002 FILLER_26_28
*1003 FILLER_26_31
*1004 FILLER_26_39
*1005 FILLER_26_47
*1006 FILLER_26_55
*1007 FILLER_26_63
*1008 FILLER_26_71
*1009 FILLER_26_79
*1010 FILLER_26_87
*1011 FILLER_26_89
*1012 FILLER_26_91
*1013 FILLER_26_99
*1014 FILLER_26_107
*1015 FILLER_26_115
*1016 FILLER_26_123
*1017 FILLER_26_131
*1018 FILLER_26_139
*1019 FILLER_26_147
*1020 FILLER_26_149
*1021 FILLER_26_151
*1022 FILLER_26_159
*1023 FILLER_26_167
*1024 FILLER_26_175
*1025 FILLER_26_183
*1026 FILLER_26_191
*1027 FILLER_26_195
*1028 FILLER_26_197
*1029 FILLER_27_0
*1030 FILLER_27_8
*1031 FILLER_27_16
*1032 FILLER_27_24
*1033 FILLER_27_32
*1034 FILLER_27_40
*1035 FILLER_27_48
*1036 FILLER_27_56
*1037 FILLER_27_61
*1038 FILLER_27_69
*1039 FILLER_27_77
*1040 FILLER_27_85
*1041 FILLER_27_93
*1042 FILLER_27_101
*1043 FILLER_27_109
*1044 FILLER_27_117
*1045 FILLER_27_119
*1046 FILLER_27_121
*1047 FILLER_27_129
*1048 FILLER_27_137
*1049 FILLER_27_145
*1050 FILLER_27_153
*1051 FILLER_27_161
*1052 FILLER_27_169
*1053 FILLER_27_177
*1054 FILLER_27_179
*1055 FILLER_27_181
*1056 FILLER_27_189
*1057 FILLER_27_197
*1058 FILLER_28_0
*1059 FILLER_28_8
*1060 FILLER_28_16
*1061 FILLER_28_24
*1062 FILLER_28_28
*1063 FILLER_28_31
*1064 FILLER_28_39
*1065 FILLER_28_47
*1066 FILLER_28_55
*1067 FILLER_28_63
*1068 FILLER_28_71
*1069 FILLER_28_79
*1070 FILLER_28_87
*1071 FILLER_28_89
*1072 FILLER_28_91
*1073 FILLER_28_99
*1074 FILLER_28_107
*1075 FILLER_28_115
*1076 FILLER_28_123
*1077 FILLER_28_131
*1078 FILLER_28_139
*1079 FILLER_28_147
*1080 FILLER_28_149
*1081 FILLER_28_151
*1082 FILLER_28_159
*1083 FILLER_28_167
*1084 FILLER_28_175
*1085 FILLER_28_183
*1086 FILLER_28_191
*1087 FILLER_28_195
*1088 FILLER_28_197
*1089 FILLER_29_0
*1090 FILLER_29_8
*1091 FILLER_29_16
*1092 FILLER_29_24
*1093 FILLER_29_32
*1094 FILLER_29_40
*1095 FILLER_29_48
*1096 FILLER_29_56
*1097 FILLER_29_61
*1098 FILLER_29_69
*1099 FILLER_29_77
*1100 FILLER_29_85
*1101 FILLER_29_93
*1102 FILLER_29_101
*1103 FILLER_29_109
*1104 FILLER_29_117
*1105 FILLER_29_119
*1106 FILLER_29_121
*1107 FILLER_29_129
*1108 FILLER_29_137
*1109 FILLER_29_145
*1110 FILLER_29_153
*1111 FILLER_29_161
*1112 FILLER_29_169
*1113 FILLER_29_177
*1114 FILLER_29_179
*1115 FILLER_29_181
*1116 FILLER_29_189
*1117 FILLER_29_197
*1118 FILLER_30_0
*1119 FILLER_30_8
*1120 FILLER_30_16
*1121 FILLER_30_24
*1122 FILLER_30_28
*1123 FILLER_30_31
*1124 FILLER_30_39
*1125 FILLER_30_47
*1126 FILLER_30_55
*1127 FILLER_30_63
*1128 FILLER_30_71
*1129 FILLER_30_79
*1130 FILLER_30_87
*1131 FILLER_30_89
*1132 FILLER_30_91
*1133 FILLER_30_99
*1134 FILLER_30_107
*1135 FILLER_30_115
*1136 FILLER_30_123
*1137 FILLER_30_131
*1138 FILLER_30_139
*1139 FILLER_30_147
*1140 FILLER_30_149
*1141 FILLER_30_151
*1142 FILLER_30_159
*1143 FILLER_30_167
*1144 FILLER_30_175
*1145 FILLER_30_183
*1146 FILLER_30_191
*1147 FILLER_30_195
*1148 FILLER_30_197
*1149 FILLER_31_0
*1150 FILLER_31_8
*1151 FILLER_31_16
*1152 FILLER_31_24
*1153 FILLER_31_32
*1154 FILLER_31_40
*1155 FILLER_31_48
*1156 FILLER_31_56
*1157 FILLER_31_61
*1158 FILLER_31_69
*1159 FILLER_31_77
*1160 FILLER_31_85
*1161 FILLER_31_93
*1162 FILLER_31_109
*1163 FILLER_31_117
*1164 FILLER_31_119
*1165 FILLER_31_121
*1166 FILLER_31_129
*1167 FILLER_31_137
*1168 FILLER_31_145
*1169 FILLER_31_153
*1170 FILLER_31_161
*1171 FILLER_31_169
*1172 FILLER_31_177
*1173 FILLER_31_179
*1174 FILLER_31_181
*1175 FILLER_31_189
*1176 FILLER_31_197
*1177 FILLER_32_0
*1178 FILLER_32_8
*1179 FILLER_32_16
*1180 FILLER_32_24
*1181 FILLER_32_28
*1182 FILLER_32_31
*1183 FILLER_32_39
*1184 FILLER_32_47
*1185 FILLER_32_55
*1186 FILLER_32_59
*1187 FILLER_32_61
*1188 FILLER_32_69
*1189 FILLER_32_77
*1190 FILLER_32_85
*1191 FILLER_32_89
*1192 FILLER_32_91
*1193 FILLER_32_99
*1194 FILLER_32_107
*1195 FILLER_32_115
*1196 FILLER_32_119
*1197 FILLER_32_121
*1198 FILLER_32_129
*1199 FILLER_32_137
*1200 FILLER_32_145
*1201 FILLER_32_149
*1202 FILLER_32_151
*1203 FILLER_32_159
*1204 FILLER_32_167
*1205 FILLER_32_175
*1206 FILLER_32_179
*1207 FILLER_32_181
*1208 FILLER_32_189
*1209 FILLER_32_197

*PORTS
a[0] I
a[1] I
a[2] I
a[3] I
b[0] I
b[1] I
b[2] I
b[3] I
ci I
clk I
co O
rst_n I
s[0] O
s[1] O
s[2] O
s[3] O

*D_NET *1 0.00102147
*CONN
*I *110:A I *D sky130_fd_sc_hd__ha_1
*I *109:A I *D sky130_fd_sc_hd__fa_1
*I *85:Y O *D sky130_fd_sc_hd__inv_1
*CAP
1 *110:A 1.716e-05
2 *109:A 9.81446e-05
3 *85:Y 0.000121161
4 *1:6 0.000236466
5 *109:A *93:B_N 0
6 *109:A *100:A 0
7 *109:A *109:B 0.000167558
8 *110:A *93:B_N 6.08467e-05
9 *110:A *110:B 1.00846e-05
10 *1:6 *93:B_N 0.000277488
11 *1:6 *110:B 3.25584e-05
*RES
1 *85:Y *1:6 13.5775 
2 *1:6 *109:A 12.0778 
3 *1:6 *110:A 9.97254 
*END

*D_NET *2 0.000974015
*CONN
*I *109:B I *D sky130_fd_sc_hd__fa_1
*I *110:B I *D sky130_fd_sc_hd__ha_1
*I *89:Y O *D sky130_fd_sc_hd__inv_1
*CAP
1 *109:B 0.000162074
2 *110:B 0.000114702
3 *89:Y 0.00010513
4 *2:10 0.000381907
5 *109:B *100:A 0
6 *109:B *24:10 0
7 *2:10 *100:A 0
8 *2:10 *24:10 0
9 *109:A *109:B 0.000167558
10 *110:A *110:B 1.00846e-05
11 *1:6 *110:B 3.25584e-05
*RES
1 *89:Y *2:10 16.0272 
2 *2:10 *110:B 15.5817 
3 *2:10 *109:B 9.23876 
*END

*D_NET *3 0.000734872
*CONN
*I *109:CIN I *D sky130_fd_sc_hd__fa_1
*I *83:Y O *D sky130_fd_sc_hd__inv_1
*CAP
1 *109:CIN 0.000317261
2 *83:Y 0.000317261
3 *109:CIN *93:B_N 3.10797e-05
4 *109:CIN *100:B 6.92705e-05
*RES
1 *83:Y *109:CIN 25.5996 
*END

*D_NET *4 0.000375396
*CONN
*I *100:B I *D sky130_fd_sc_hd__xnor2_1
*I *109:COUT O *D sky130_fd_sc_hd__fa_1
*CAP
1 *100:B 0.000127371
2 *109:COUT 0.000127371
3 *100:B *100:A 5.13843e-05
4 *109:CIN *100:B 6.92705e-05
*RES
1 *109:COUT *100:B 30.4689 
*END

*D_NET *5 0.00037025
*CONN
*I *84:A I *D sky130_fd_sc_hd__inv_1
*I *109:SUM O *D sky130_fd_sc_hd__fa_1
*CAP
1 *84:A 0.000185125
2 *109:SUM 0.000185125
*RES
1 *109:SUM *84:A 22.7603 
*END

*D_NET *6 0.000491715
*CONN
*I *93:A I *D sky130_fd_sc_hd__nor2b_4
*I *110:COUT O *D sky130_fd_sc_hd__ha_1
*CAP
1 *93:A 0.000108969
2 *110:COUT 0.000108969
3 *93:A *93:B_N 0.000273777
*RES
1 *110:COUT *93:A 22.0188 
*END

*D_NET *7 0.000779932
*CONN
*I *101:A2 I *D sky130_fd_sc_hd__o31ai_1
*I *111:COUT O *D sky130_fd_sc_hd__ha_1
*CAP
1 *101:A2 0.00023165
2 *111:COUT 0.00023165
3 *101:A2 *101:A1 4.06315e-05
4 *101:A2 *112:A 5.62448e-05
5 *101:A2 *8:10 0.000219756
*RES
1 *111:COUT *101:A2 35.5983 
*END

*D_NET *8 0.00225091
*CONN
*I *96:A2 I *D sky130_fd_sc_hd__o311ai_2
*I *105:A1 I *D sky130_fd_sc_hd__o211a_1
*I *112:COUT O *D sky130_fd_sc_hd__ha_1
*CAP
1 *96:A2 0
2 *105:A1 0.000152075
3 *112:COUT 0.000522848
4 *8:10 0.000674923
5 *105:A1 *102:A 0
6 *105:A1 *104:A 0.000128091
7 *105:A1 *105:A2 0.000328092
8 *105:A1 *24:12 1.37566e-05
9 *8:10 *101:A1 1.99543e-06
10 *8:10 *101:B1 0.0001195
11 *8:10 *102:B 2.58616e-05
12 *8:10 *106:B_N 9.03508e-06
13 *8:10 *24:12 5.49769e-05
14 *101:A2 *8:10 0.000219756
*RES
1 *112:COUT *8:10 23.7903 
2 *8:10 *105:A1 19.7687 
3 *8:10 *96:A2 13.7491 
*END

*D_NET *9 0.000269015
*CONN
*I *113:A I *D sky130_fd_sc_hd__ha_1
*I *86:Y O *D sky130_fd_sc_hd__inv_1
*CAP
1 *113:A 0.000105873
2 *86:Y 0.000105873
3 *113:A *90:A 0
4 *113:A *104:A 2.91752e-05
5 *113:A *13:12 2.80933e-05
*RES
1 *86:Y *113:A 30.1916 
*END

*D_NET *10 0.000275417
*CONN
*I *113:B I *D sky130_fd_sc_hd__ha_1
*I *90:Y O *D sky130_fd_sc_hd__inv_1
*CAP
1 *113:B 0.000137709
2 *90:Y 0.000137709
*RES
1 *90:Y *113:B 21.7174 
*END

*D_NET *11 0.00223855
*CONN
*I *94:B I *D sky130_fd_sc_hd__nand2b_1
*I *104:A I *D sky130_fd_sc_hd__nor2_1
*I *113:COUT O *D sky130_fd_sc_hd__ha_1
*CAP
1 *94:B 9.41566e-05
2 *104:A 0.0005591
3 *113:COUT 0
4 *11:4 0.000653257
5 *94:B *13:25 5.58925e-05
6 *104:A *105:A2 3.83429e-05
7 *104:A *105:B1 0.00021569
8 *104:A *105:C1 0.000217937
9 *104:A *108:B1 4.15985e-05
10 *104:A *13:12 0.000205311
11 *105:A1 *104:A 0.000128091
12 *113:A *104:A 2.91752e-05
*RES
1 *113:COUT *11:4 9.24915 
2 *11:4 *104:A 35.3367 
3 *11:4 *94:B 11.8594 
*END

*D_NET *12 0.00195392
*CONN
*I *100:A I *D sky130_fd_sc_hd__xnor2_1
*I *113:SUM O *D sky130_fd_sc_hd__ha_1
*CAP
1 *100:A 0.000704674
2 *113:SUM 0.000704674
3 *100:A *90:A 1.69758e-05
4 *100:A *93:B_N 0.000153225
5 *100:A *112:A 4.97731e-05
6 *100:A *112:B 0.000215622
7 *100:A *42:21 5.75903e-05
8 *100:B *100:A 5.13843e-05
9 *109:A *100:A 0
10 *109:B *100:A 0
11 *2:10 *100:A 0
*RES
1 *113:SUM *100:A 47.3577 
*END

*D_NET *13 0.00306033
*CONN
*I *96:A1 I *D sky130_fd_sc_hd__o311ai_2
*I *106:B_N I *D sky130_fd_sc_hd__nor2b_1
*I *101:A1 I *D sky130_fd_sc_hd__o31ai_1
*I *94:A_N I *D sky130_fd_sc_hd__nand2b_1
*I *114:COUT O *D sky130_fd_sc_hd__ha_1
*CAP
1 *96:A1 0
2 *106:B_N 0.000332052
3 *101:A1 7.13774e-05
4 *94:A_N 0
5 *114:COUT 0.000254934
6 *13:31 0.000547078
7 *13:25 0.000280016
8 *13:12 0.000391301
9 *106:B_N *101:B1 6.27718e-05
10 *106:B_N *102:A 0.00016195
11 *106:B_N *102:B 4.38909e-05
12 *106:B_N *106:A 7.20028e-05
13 *106:B_N *122:D 0.000114271
14 *13:12 *86:A 8.94744e-05
15 *13:25 *25:6 6.27718e-05
16 *13:31 *24:10 2.1667e-05
17 *13:31 *24:12 0.000213809
18 *94:B *13:25 5.58925e-05
19 *101:A2 *101:A1 4.06315e-05
20 *104:A *13:12 0.000205311
21 *113:A *13:12 2.80933e-05
22 *8:10 *101:A1 1.99543e-06
23 *8:10 *106:B_N 9.03508e-06
*RES
1 *114:COUT *13:12 25.2386 
2 *13:12 *94:A_N 9.24915 
3 *13:12 *13:25 4.26804 
4 *13:25 *13:31 13.3235 
5 *13:31 *101:A1 11.1059 
6 *13:31 *106:B_N 18.2916 
7 *13:25 *96:A1 9.24915 
*END

*D_NET *14 0.000321285
*CONN
*I *115:A I *D sky130_fd_sc_hd__ha_1
*I *87:Y O *D sky130_fd_sc_hd__inv_1
*CAP
1 *115:A 9.97923e-05
2 *87:Y 9.97923e-05
3 *115:A *87:A 6.60539e-05
4 *115:A *16:10 5.56461e-05
*RES
1 *87:Y *115:A 21.7174 
*END

*D_NET *15 0.000373212
*CONN
*I *115:B I *D sky130_fd_sc_hd__ha_1
*I *91:Y O *D sky130_fd_sc_hd__inv_1
*CAP
1 *115:B 0.000173613
2 *91:Y 0.000173613
3 *115:B *87:A 0
4 *115:B *91:A 2.59857e-05
*RES
1 *91:Y *115:B 31.1615 
*END

*D_NET *16 0.00170923
*CONN
*I *106:A I *D sky130_fd_sc_hd__nor2b_1
*I *95:A I *D sky130_fd_sc_hd__inv_1
*I *104:B I *D sky130_fd_sc_hd__nor2_1
*I *115:COUT O *D sky130_fd_sc_hd__ha_1
*CAP
1 *106:A 0.000271225
2 *95:A 1.01359e-05
3 *104:B 0
4 *115:COUT 0.000308001
5 *16:19 0.000407609
6 *16:10 0.00043425
7 *95:A *96:C1 3.20544e-05
8 *95:A *27:10 1.15863e-05
9 *106:A *108:B1 5.46384e-06
10 *16:10 *102:A 0
11 *16:10 *105:C1 7.50872e-05
12 *16:10 *107:A2 0
13 *16:19 *102:A 0
14 *16:19 *107:A2 0
15 *16:19 *108:B1 2.61693e-05
16 *106:B_N *106:A 7.20028e-05
17 *115:A *16:10 5.56461e-05
*RES
1 *115:COUT *16:10 19.3535 
2 *16:10 *104:B 13.7491 
3 *16:10 *16:19 3.07775 
4 *16:19 *95:A 14.1289 
5 *16:19 *106:A 20.7627 
*END

*D_NET *17 0.00115061
*CONN
*I *102:A I *D sky130_fd_sc_hd__xnor2_1
*I *115:SUM O *D sky130_fd_sc_hd__ha_1
*CAP
1 *102:A 0.000481404
2 *115:SUM 0.000481404
3 *102:A *105:C1 2.58518e-05
4 *105:A1 *102:A 0
5 *106:B_N *102:A 0.00016195
6 *16:10 *102:A 0
7 *16:19 *102:A 0
*RES
1 *115:SUM *102:A 38.6374 
*END

*D_NET *18 0.00149202
*CONN
*I *103:A I *D sky130_fd_sc_hd__nor2_1
*I *97:A I *D sky130_fd_sc_hd__nor2_1
*I *107:A1 I *D sky130_fd_sc_hd__o21a_1
*I *116:COUT O *D sky130_fd_sc_hd__ha_1
*CAP
1 *103:A 0
2 *97:A 0.000170819
3 *107:A1 6.82919e-05
4 *116:COUT 0.000409184
5 *18:16 0.000258644
6 *18:14 0.000428717
7 *97:A *97:B 6.34693e-05
8 *107:A1 *108:A2 1.37189e-05
9 *107:A1 *22:23 2.57847e-05
10 *18:14 *92:A 0
11 *18:14 *98:B_N 0
12 *18:14 *108:A2 4.87301e-05
13 *18:16 *105:C1 0
14 *18:16 *22:23 4.65954e-06
*RES
1 *116:COUT *18:14 27.3443 
2 *18:14 *18:16 0.578717 
3 *18:16 *107:A1 11.0817 
4 *18:16 *97:A 14.4335 
5 *18:14 *103:A 9.24915 
*END

*D_NET *19 0.00061251
*CONN
*I *117:A I *D sky130_fd_sc_hd__ha_1
*I *88:Y O *D sky130_fd_sc_hd__inv_1
*CAP
1 *117:A 0.000195283
2 *88:Y 0.000195283
3 *117:A *88:A 3.61564e-05
4 *117:A *92:A 0.000138384
5 *117:A *117:B 4.74034e-05
*RES
1 *88:Y *117:A 23.4053 
*END

*D_NET *20 0.000489612
*CONN