*SPEF "ieee 1481-1999"
*DESIGN "seven_segment_seconds"
*DATE "06:58:48 Tuesday July 07, 2026"
*VENDOR "The OpenROAD Project"
*PROGRAM "OpenROAD"
*VERSION "26Q1-1392-g93cb34c5d4"
*DESIGN_FLOW "NAME_SCOPE LOCAL" "PIN_CAP NONE"
*DIVIDER /
*DELIMITER :
*BUS_DELIMITER []
*T_UNIT 1 NS
*C_UNIT 1 PF
*R_UNIT 1 OHM
*L_UNIT 1 HENRY

*NAME_MAP
*1 _000_
*2 _001_
*3 _002_
*4 _003_
*5 _004_
*6 _005_
*7 _006_
*8 _007_
*9 _008_
*10 _009_
*11 _010_
*12 _011_
*13 _012_
*14 _013_
*15 _014_
*16 _015_
*17 _016_
*18 _017_
*19 _018_
*20 _019_
*21 _020_
*22 _021_
*23 _022_
*24 _023_
*25 _024_
*26 _025_
*27 _026_
*28 _027_
*29 _028_
*30 _029_
*31 _030_
*32 _031_
*33 _032_
*34 _033_
*35 _034_
*36 _035_
*37 _036_
*38 _037_
*39 _038_
*40 _039_
*41 _040_
*42 _041_
*43 _042_
*44 _043_
*45 _044_
*46 _045_
*47 _046_
*48 _047_
*49 _048_
*50 _049_
*51 _050_
*52 _051_
*53 _052_
*54 _053_
*55 _054_
*56 _055_
*57 _056_
*58 _057_
*59 _058_
*60 _059_
*61 _060_
*62 _061_
*63 _062_
*64 _063_
*65 _064_
*66 _065_
*67 _066_
*68 _067_
*69 _068_
*70 _069_
*71 _070_
*72 _071_
*73 _072_
*74 _073_
*75 _074_
*76 _075_
*77 _076_
*78 _077_
*79 _078_
*80 _079_
*81 _080_
*82 _081_
*83 _082_
*84 _083_
*85 _084_
*86 _085_
*87 _086_
*88 _087_
*89 _088_
*90 seg[0]
*91 _090_
*92 _091_
*93 _092_
*94 _093_
*95 _094_
*96 _095_
*97 _096_
*98 _097_
*99 _098_
*100 _099_
*101 _100_
*102 _101_
*103 _102_
*104 _103_
*105 _104_
*106 _105_
*107 _106_
*108 _107_
*109 _108_
*110 _109_
*111 _110_
*112 _111_
*113 _112_
*114 _113_
*115 _114_
*116 _115_
*117 rst_n
*118 _117_
*119 _118_
*120 _119_
*121 _120_
*122 _121_
*123 _122_
*124 _123_
*125 _124_
*126 _125_
*127 _126_
*128 _127_
*129 _128_
*130 _129_
*131 _130_
*132 _131_
*133 _132_
*134 _133_
*135 _134_
*136 _135_
*137 _136_
*138 _137_
*139 _138_
*140 _139_
*141 _140_
*142 _141_
*143 _142_
*144 _143_
*145 _144_
*146 _145_
*147 _146_
*148 _147_
*149 _148_
*150 _149_
*151 _150_
*152 _151_
*153 seg[1]
*154 _153_
*155 _154_
*156 _155_
*157 _156_
*158 _157_
*159 _158_
*160 _159_
*161 _160_
*162 _161_
*163 _162_
*164 _163_
*165 _164_
*166 _165_
*167 _166_
*168 _167_
*169 _168_
*170 clk
*171 digit\[0\]
*172 digit\[1\]
*173 digit\[2\]
*174 digit\[3\]
*175 net1
*176 second_counter\[0\]
*177 second_counter\[10\]
*178 second_counter\[11\]
*179 second_counter\[12\]
*180 second_counter\[13\]
*181 second_counter\[14\]
*182 second_counter\[15\]
*183 second_counter\[16\]
*184 second_counter\[17\]
*185 second_counter\[18\]
*186 second_counter\[19\]
*187 second_counter\[1\]
*188 second_counter\[20\]
*189 second_counter\[21\]
*190 second_counter\[22\]
*191 second_counter\[23\]
*192 second_counter\[2\]
*193 second_counter\[3\]
*194 second_counter\[4\]
*195 second_counter\[5\]
*196 second_counter\[6\]
*197 second_counter\[7\]
*198 second_counter\[8\]
*199 second_counter\[9\]
*200 net2
*201 net3
*202 net4
*203 net5
*204 net6
*205 net7
*206 net8
*209 seg[2]
*210 seg[3]
*211 seg[4]
*212 seg[5]
*213 seg[6]
*214 clknet_0_clk
*215 net10
*216 clknet_2_0__leaf_clk
*217 clknet_2_1__leaf_clk
*218 clknet_2_2__leaf_clk
*219 clknet_2_3__leaf_clk
*220 _169_
*221 _170_
*222 _171_
*223 _172_
*224 _173_
*225 output3
*226 _175_
*227 _176_
*228 _177_
*229 _178_
*230 _179_
*231 _180_
*232 _181_
*233 _182_
*234 _183_
*235 _184_
*236 _185_
*237 _186_
*238 _187_
*239 _188_
*240 _189_
*241 _190_
*242 _191_
*243 _192_
*244 _193_
*245 _194_
*246 _195_
*247 _196_
*248 _197_
*249 _198_
*250 _199_
*251 _200_
*252 _201_
*253 _202_
*254 _203_
*255 _204_
*256 _205_
*257 _206_
*258 _207_
*259 _208_
*260 _209_
*261 _210_
*262 _211_
*263 _212_
*264 _213_
*265 _214_
*266 _215_
*267 _216_
*268 _217_
*269 _218_
*270 _219_
*271 _220_
*272 _221_
*273 _222_
*274 _223_
*275 _224_
*276 _225_
*277 _226_
*278 _227_
*279 _228_
*280 _229_
*281 _230_
*282 _231_
*283 _232_
*284 output2
*285 _234_
*286 _235_
*287 _236_
*288 _237_
*289 _238_
*290 _239_
*291 _240_
*292 _241_
*293 _242_
*294 _243_
*295 _244_
*296 _245_
*297 _246_
*298 _247_
*299 _248_
*300 _249_
*301 _250_
*302 _251_
*303 _252_
*304 _253_
*305 _254_
*306 _255_
*307 _256_
*308 _257_
*309 _258_
*310 _259_
*311 _260_
*312 _261_
*313 _262_
*314 _263_
*315 _264_
*316 _265_
*317 _266_
*318 _267_
*319 _268_
*320 input1
*321 _270_
*322 _271_
*323 _272_
*324 _273_
*325 _274_
*326 _275_
*327 _276_
*328 _277_
*329 _278_
*330 _279_
*331 _280_
*332 _281_
*333 _282_
*334 _283_
*335 _284_
*336 _285_
*337 _286_
*338 _287_
*339 _288_
*340 _289_
*341 _290_
*342 _291_
*343 _292_
*344 _293_
*345 _294_
*346 _295_
*347 _296_
*348 _297_
*349 _298_
*350 _299_
*351 _300_
*352 _301_
*353 _302_
*354 _303_
*355 _304_
*356 _305_
*357 _306_
*358 _307_
*359 _308_
*360 _309_
*361 _310_
*362 _311_
*363 _312_
*364 _313_
*365 _314_
*366 _315_
*367 _316_
*368 _317_
*369 _318_
*370 _319_
*371 _320_
*372 _321_
*373 _322_
*374 _323_
*375 _324_
*376 _325_
*377 _326_
*378 _327_
*379 digit\[0\]\$_SDFFE_PN0N_
*380 digit\[1\]\$_SDFFE_PN0N_
*381 digit\[2\]\$_SDFFE_PN0N_
*382 digit\[3\]\$_SDFFE_PN0N_
*383 second_counter\[0\]\$_SDFF_PP0_
*384 second_counter\[10\]\$_SDFF_PP0_
*385 second_counter\[11\]\$_SDFF_PP0_
*386 second_counter\[12\]\$_SDFF_PP0_
*387 second_counter\[13\]\$_SDFF_PP0_
*388 second_counter\[14\]\$_SDFF_PP0_
*389 second_counter\[15\]\$_SDFF_PP0_
*390 second_counter\[16\]\$_SDFF_PP0_
*391 second_counter\[17\]\$_SDFF_PP0_
*392 second_counter\[18\]\$_SDFF_PP0_
*393 second_counter\[19\]\$_SDFF_PP0_
*394 second_counter\[1\]\$_SDFF_PP0_
*395 second_counter\[20\]\$_SDFF_PP0_
*396 second_counter\[21\]\$_SDFF_PP0_
*397 second_counter\[22\]\$_SDFF_PP0_
*398 second_counter\[23\]\$_SDFF_PP0_
*399 second_counter\[2\]\$_SDFF_PP0_
*400 second_counter\[3\]\$_SDFF_PP0_
*401 second_counter\[4\]\$_SDFF_PP0_
*402 second_counter\[5\]\$_SDFF_PP0_
*403 second_counter\[6\]\$_SDFF_PP0_
*404 second_counter\[7\]\$_SDFF_PP0_
*405 second_counter\[8\]\$_SDFF_PP0_
*406 second_counter\[9\]\$_SDFF_PP0_
*407 seg\[0\]\$_DFF_P_
*408 seg\[1\]\$_DFF_P_
*409 seg\[2\]\$_DFF_P_
*410 seg\[3\]\$_DFF_P_
*411 seg\[4\]\$_DFF_P_
*412 seg\[5\]\$_DFF_P_
*413 seg\[6\]\$_DFF_P_
*414 TAP_TAPCELL_ROW_0_0
*415 TAP_TAPCELL_ROW_0_1
*416 TAP_TAPCELL_ROW_0_2
*417 TAP_TAPCELL_ROW_0_3
*418 TAP_TAPCELL_ROW_0_4
*419 TAP_TAPCELL_ROW_0_5
*420 TAP_TAPCELL_ROW_0_6
*421 TAP_TAPCELL_ROW_0_7
*422 TAP_TAPCELL_ROW_0_8
*423 TAP_TAPCELL_ROW_0_9
*424 TAP_TAPCELL_ROW_0_10
*425 TAP_TAPCELL_ROW_0_11
*426 TAP_TAPCELL_ROW_0_12
*427 TAP_TAPCELL_ROW_1_13
*428 TAP_TAPCELL_ROW_1_14
*429 TAP_TAPCELL_ROW_1_15
*430 TAP_TAPCELL_ROW_1_16
*431 TAP_TAPCELL_ROW_1_17
*432 TAP_TAPCELL_ROW_1_18
*433 TAP_TAPCELL_ROW_2_19
*434 TAP_TAPCELL_ROW_2_20
*435 TAP_TAPCELL_ROW_2_21
*436 TAP_TAPCELL_ROW_2_22
*437 TAP_TAPCELL_ROW_2_23
*438 TAP_TAPCELL_ROW_2_24
*439 TAP_TAPCELL_ROW_2_25
*440 TAP_TAPCELL_ROW_3_26
*441 TAP_TAPCELL_ROW_3_27
*442 TAP_TAPCELL_ROW_3_28
*443 TAP_TAPCELL_ROW_3_29
*444 TAP_TAPCELL_ROW_3_30
*445 TAP_TAPCELL_ROW_3_31
*446 TAP_TAPCELL_ROW_4_32
*447 TAP_TAPCELL_ROW_4_33
*448 TAP_TAPCELL_ROW_4_34
*449 TAP_TAPCELL_ROW_4_35
*450 TAP_TAPCELL_ROW_4_36
*451 TAP_TAPCELL_ROW_4_37
*452 TAP_TAPCELL_ROW_4_38
*453 TAP_TAPCELL_ROW_5_39
*454 TAP_TAPCELL_ROW_5_40
*455 TAP_TAPCELL_ROW_5_41
*456 TAP_TAPCELL_ROW_5_42
*457 TAP_TAPCELL_ROW_5_43
*458 TAP_TAPCELL_ROW_5_44
*459 TAP_TAPCELL_ROW_6_45
*460 TAP_TAPCELL_ROW_6_46
*461 TAP_TAPCELL_ROW_6_47
*462 TAP_TAPCELL_ROW_6_48
*463 TAP_TAPCELL_ROW_6_49
*464 TAP_TAPCELL_ROW_6_50
*465 TAP_TAPCELL_ROW_6_51
*466 TAP_TAPCELL_ROW_7_52
*467 TAP_TAPCELL_ROW_7_53
*468 TAP_TAPCELL_ROW_7_54
*469 TAP_TAPCELL_ROW_7_55
*470 TAP_TAPCELL_ROW_7_56
*471 TAP_TAPCELL_ROW_7_57
*472 TAP_TAPCELL_ROW_8_58
*473 TAP_TAPCELL_ROW_8_59
*474 TAP_TAPCELL_ROW_8_60
*475 TAP_TAPCELL_ROW_8_61
*476 TAP_TAPCELL_ROW_8_62
*477 TAP_TAPCELL_ROW_8_63
*478 TAP_TAPCELL_ROW_8_64
*479 TAP_TAPCELL_ROW_9_65
*480 TAP_TAPCELL_ROW_9_66
*481 TAP_TAPCELL_ROW_9_67
*482 TAP_TAPCELL_ROW_9_68
*483 TAP_TAPCELL_ROW_9_69
*484 TAP_TAPCELL_ROW_9_70
*485 TAP_TAPCELL_ROW_10_71
*486 TAP_TAPCELL_ROW_10_72
*487 TAP_TAPCELL_ROW_10_73
*488 TAP_TAPCELL_ROW_10_74
*489 TAP_TAPCELL_ROW_10_75
*490 TAP_TAPCELL_ROW_10_76
*491 TAP_TAPCELL_ROW_10_77
*492 TAP_TAPCELL_ROW_11_78
*493 TAP_TAPCELL_ROW_11_79
*494 TAP_TAPCELL_ROW_11_80
*495 TAP_TAPCELL_ROW_11_81
*496 TAP_TAPCELL_ROW_11_82
*497 TAP_TAPCELL_ROW_11_83
*498 TAP_TAPCELL_ROW_12_84
*499 TAP_TAPCELL_ROW_12_85
*500 TAP_TAPCELL_ROW_12_86
*501 TAP_TAPCELL_ROW_12_87
*502 TAP_TAPCELL_ROW_12_88
*503 TAP_TAPCELL_ROW_12_89
*504 TAP_TAPCELL_ROW_12_90
*505 TAP_TAPCELL_ROW_13_91
*506 TAP_TAPCELL_ROW_13_92
*507 TAP_TAPCELL_ROW_13_93
*508 TAP_TAPCELL_ROW_13_94
*509 TAP_TAPCELL_ROW_13_95
*510 TAP_TAPCELL_ROW_13_96
*511 TAP_TAPCELL_ROW_14_97
*512 TAP_TAPCELL_ROW_14_98
*513 TAP_TAPCELL_ROW_14_99
*514 TAP_TAPCELL_ROW_14_100
*515 TAP_TAPCELL_ROW_14_101
*516 TAP_TAPCELL_ROW_14_102
*517 TAP_TAPCELL_ROW_14_103
*518 TAP_TAPCELL_ROW_15_104
*519 TAP_TAPCELL_ROW_15_105
*520 TAP_TAPCELL_ROW_15_106
*521 TAP_TAPCELL_ROW_15_107
*522 TAP_TAPCELL_ROW_15_108
*523 TAP_TAPCELL_ROW_15_109
*524 TAP_TAPCELL_ROW_16_110
*525 TAP_TAPCELL_ROW_16_111
*526 TAP_TAPCELL_ROW_16_112
*527 TAP_TAPCELL_ROW_16_113
*528 TAP_TAPCELL_ROW_16_114
*529 TAP_TAPCELL_ROW_16_115
*530 TAP_TAPCELL_ROW_16_116
*531 TAP_TAPCELL_ROW_17_117
*532 TAP_TAPCELL_ROW_17_118
*533 TAP_TAPCELL_ROW_17_119
*534 TAP_TAPCELL_ROW_17_120
*535 TAP_TAPCELL_ROW_17_121
*536 TAP_TAPCELL_ROW_17_122
*537 TAP_TAPCELL_ROW_18_123
*538 TAP_TAPCELL_ROW_18_124
*539 TAP_TAPCELL_ROW_18_125
*540 TAP_TAPCELL_ROW_18_126
*541 TAP_TAPCELL_ROW_18_127
*542 TAP_TAPCELL_ROW_18_128
*543 TAP_TAPCELL_ROW_18_129
*544 TAP_TAPCELL_ROW_19_130
*545 TAP_TAPCELL_ROW_19_131
*546 TAP_TAPCELL_ROW_19_132
*547 TAP_TAPCELL_ROW_19_133
*548 TAP_TAPCELL_ROW_19_134
*549 TAP_TAPCELL_ROW_19_135
*550 TAP_TAPCELL_ROW_20_136
*551 TAP_TAPCELL_ROW_20_137
*552 TAP_TAPCELL_ROW_20_138
*553 TAP_TAPCELL_ROW_20_139
*554 TAP_TAPCELL_ROW_20_140
*555 TAP_TAPCELL_ROW_20_141
*556 TAP_TAPCELL_ROW_20_142
*557 TAP_TAPCELL_ROW_21_143
*558 TAP_TAPCELL_ROW_21_144
*559 TAP_TAPCELL_ROW_21_145
*560 TAP_TAPCELL_ROW_21_146
*561 TAP_TAPCELL_ROW_21_147
*562 TAP_TAPCELL_ROW_21_148
*563 TAP_TAPCELL_ROW_22_149
*564 TAP_TAPCELL_ROW_22_150
*565 TAP_TAPCELL_ROW_22_151
*566 TAP_TAPCELL_ROW_22_152
*567 TAP_TAPCELL_ROW_22_153
*568 TAP_TAPCELL_ROW_22_154
*569 TAP_TAPCELL_ROW_22_155
*570 TAP_TAPCELL_ROW_23_156
*571 TAP_TAPCELL_ROW_23_157
*572 TAP_TAPCELL_ROW_23_158
*573 TAP_TAPCELL_ROW_23_159
*574 TAP_TAPCELL_ROW_23_160
*575 TAP_TAPCELL_ROW_23_161
*576 TAP_TAPCELL_ROW_24_162
*577 TAP_TAPCELL_ROW_24_163
*578 TAP_TAPCELL_ROW_24_164
*579 TAP_TAPCELL_ROW_24_165
*580 TAP_TAPCELL_ROW_24_166
*581 TAP_TAPCELL_ROW_24_167
*582 TAP_TAPCELL_ROW_24_168
*583 TAP_TAPCELL_ROW_25_169
*584 TAP_TAPCELL_ROW_25_170
*585 TAP_TAPCELL_ROW_25_171
*586 TAP_TAPCELL_ROW_25_172
*587 TAP_TAPCELL_ROW_25_173
*588 TAP_TAPCELL_ROW_25_174
*589 TAP_TAPCELL_ROW_26_175
*590 TAP_TAPCELL_ROW_26_176
*591 TAP_TAPCELL_ROW_26_177
*592 TAP_TAPCELL_ROW_26_178
*593 TAP_TAPCELL_ROW_26_179
*594 TAP_TAPCELL_ROW_26_180
*595 TAP_TAPCELL_ROW_26_181
*596 TAP_TAPCELL_ROW_27_182
*597 TAP_TAPCELL_ROW_27_183
*598 TAP_TAPCELL_ROW_27_184
*599 TAP_TAPCELL_ROW_27_185
*600 TAP_TAPCELL_ROW_27_186
*601 TAP_TAPCELL_ROW_27_187
*602 TAP_TAPCELL_ROW_28_188
*603 TAP_TAPCELL_ROW_28_189
*604 TAP_TAPCELL_ROW_28_190
*605 TAP_TAPCELL_ROW_28_191
*606 TAP_TAPCELL_ROW_28_192
*607 TAP_TAPCELL_ROW_28_193
*608 TAP_TAPCELL_ROW_28_194
*609 TAP_TAPCELL_ROW_29_195
*610 TAP_TAPCELL_ROW_29_196
*611 TAP_TAPCELL_ROW_29_197
*612 TAP_TAPCELL_ROW_29_198
*613 TAP_TAPCELL_ROW_29_199
*614 TAP_TAPCELL_ROW_29_200
*615 TAP_TAPCELL_ROW_30_201
*616 TAP_TAPCELL_ROW_30_202
*617 TAP_TAPCELL_ROW_30_203
*618 TAP_TAPCELL_ROW_30_204
*619 TAP_TAPCELL_ROW_30_205
*620 TAP_TAPCELL_ROW_30_206
*621 TAP_TAPCELL_ROW_30_207
*622 TAP_TAPCELL_ROW_31_208
*623 TAP_TAPCELL_ROW_31_209
*624 TAP_TAPCELL_ROW_31_210
*625 TAP_TAPCELL_ROW_31_211
*626 TAP_TAPCELL_ROW_31_212
*627 TAP_TAPCELL_ROW_31_213
*628 TAP_TAPCELL_ROW_32_214
*629 TAP_TAPCELL_ROW_32_215
*630 TAP_TAPCELL_ROW_32_216
*631 TAP_TAPCELL_ROW_32_217
*632 TAP_TAPCELL_ROW_32_218
*633 TAP_TAPCELL_ROW_32_219
*634 TAP_TAPCELL_ROW_32_220
*635 TAP_TAPCELL_ROW_33_221
*636 TAP_TAPCELL_ROW_33_222
*637 TAP_TAPCELL_ROW_33_223
*638 TAP_TAPCELL_ROW_33_224
*639 TAP_TAPCELL_ROW_33_225
*640 TAP_TAPCELL_ROW_33_226
*641 TAP_TAPCELL_ROW_34_227
*642 TAP_TAPCELL_ROW_34_228
*643 TAP_TAPCELL_ROW_34_229
*644 TAP_TAPCELL_ROW_34_230
*645 TAP_TAPCELL_ROW_34_231
*646 TAP_TAPCELL_ROW_34_232
*647 TAP_TAPCELL_ROW_34_233
*648 TAP_TAPCELL_ROW_35_234
*649 TAP_TAPCELL_ROW_35_235
*650 TAP_TAPCELL_ROW_35_236
*651 TAP_TAPCELL_ROW_35_237
*652 TAP_TAPCELL_ROW_35_238
*653 TAP_TAPCELL_ROW_35_239
*654 TAP_TAPCELL_ROW_36_240
*655 TAP_TAPCELL_ROW_36_241
*656 TAP_TAPCELL_ROW_36_242
*657 TAP_TAPCELL_ROW_36_243
*658 TAP_TAPCELL_ROW_36_244
*659 TAP_TAPCELL_ROW_36_245
*660 TAP_TAPCELL_ROW_36_246
*661 TAP_TAPCELL_ROW_37_247
*662 TAP_TAPCELL_ROW_37_248
*663 TAP_TAPCELL_ROW_37_249
*664 TAP_TAPCELL_ROW_37_250
*665 TAP_TAPCELL_ROW_37_251
*666 TAP_TAPCELL_ROW_37_252
*667 TAP_TAPCELL_ROW_38_253
*668 TAP_TAPCELL_ROW_38_254
*669 TAP_TAPCELL_ROW_38_255
*670 TAP_TAPCELL_ROW_38_256
*671 TAP_TAPCELL_ROW_38_257
*672 TAP_TAPCELL_ROW_38_258
*673 TAP_TAPCELL_ROW_38_259
*674 TAP_TAPCELL_ROW_39_260
*675 TAP_TAPCELL_ROW_39_261
*676 TAP_TAPCELL_ROW_39_262
*677 TAP_TAPCELL_ROW_39_263
*678 TAP_TAPCELL_ROW_39_264
*679 TAP_TAPCELL_ROW_39_265
*680 TAP_TAPCELL_ROW_40_266
*681 TAP_TAPCELL_ROW_40_267
*682 TAP_TAPCELL_ROW_40_268
*683 TAP_TAPCELL_ROW_40_269
*684 TAP_TAPCELL_ROW_40_270
*685 TAP_TAPCELL_ROW_40_271
*686 TAP_TAPCELL_ROW_40_272
*687 TAP_TAPCELL_ROW_41_273
*688 TAP_TAPCELL_ROW_41_274
*689 TAP_TAPCELL_ROW_41_275
*690 TAP_TAPCELL_ROW_41_276
*691 TAP_TAPCELL_ROW_41_277
*692 TAP_TAPCELL_ROW_41_278
*693 TAP_TAPCELL_ROW_42_279
*694 TAP_TAPCELL_ROW_42_280
*695 TAP_TAPCELL_ROW_42_281
*696 TAP_TAPCELL_ROW_42_282
*697 TAP_TAPCELL_ROW_42_283
*698 TAP_TAPCELL_ROW_42_284
*699 TAP_TAPCELL_ROW_42_285
*700 TAP_TAPCELL_ROW_43_286
*701 TAP_TAPCELL_ROW_43_287
*702 TAP_TAPCELL_ROW_43_288
*703 TAP_TAPCELL_ROW_43_289
*704 TAP_TAPCELL_ROW_43_290
*705 TAP_TAPCELL_ROW_43_291
*706 TAP_TAPCELL_ROW_44_292
*707 TAP_TAPCELL_ROW_44_293
*708 TAP_TAPCELL_ROW_44_294
*709 TAP_TAPCELL_ROW_44_295
*710 TAP_TAPCELL_ROW_44_296
*711 TAP_TAPCELL_ROW_44_297
*712 TAP_TAPCELL_ROW_44_298
*713 TAP_TAPCELL_ROW_45_299
*714 TAP_TAPCELL_ROW_45_300
*715 TAP_TAPCELL_ROW_45_301
*716 TAP_TAPCELL_ROW_45_302
*717 TAP_TAPCELL_ROW_45_303
*718 TAP_TAPCELL_ROW_45_304
*719 TAP_TAPCELL_ROW_46_305
*720 TAP_TAPCELL_ROW_46_306
*721 TAP_TAPCELL_ROW_46_307
*722 TAP_TAPCELL_ROW_46_308
*723 TAP_TAPCELL_ROW_46_309
*724 TAP_TAPCELL_ROW_46_310
*725 TAP_TAPCELL_ROW_46_311
*726 TAP_TAPCELL_ROW_47_312
*727 TAP_TAPCELL_ROW_47_313
*728 TAP_TAPCELL_ROW_47_314
*729 TAP_TAPCELL_ROW_47_315
*730 TAP_TAPCELL_ROW_47_316
*731 TAP_TAPCELL_ROW_47_317
*732 TAP_TAPCELL_ROW_48_318
*733 TAP_TAPCELL_ROW_48_319
*734 TAP_TAPCELL_ROW_48_320
*735 TAP_TAPCELL_ROW_48_321
*736 TAP_TAPCELL_ROW_48_322
*737 TAP_TAPCELL_ROW_48_323
*738 TAP_TAPCELL_ROW_48_324
*739 TAP_TAPCELL_ROW_49_325
*740 TAP_TAPCELL_ROW_49_326
*741 TAP_TAPCELL_ROW_49_327
*742 TAP_TAPCELL_ROW_49_328
*743 TAP_TAPCELL_ROW_49_329
*744 TAP_TAPCELL_ROW_49_330
*745 TAP_TAPCELL_ROW_50_331
*746 TAP_TAPCELL_ROW_50_332
*747 TAP_TAPCELL_ROW_50_333
*748 TAP_TAPCELL_ROW_50_334
*749 TAP_TAPCELL_ROW_50_335
*750 TAP_TAPCELL_ROW_50_336
*751 TAP_TAPCELL_ROW_50_337
*752 TAP_TAPCELL_ROW_51_338
*753 TAP_TAPCELL_ROW_51_339
*754 TAP_TAPCELL_ROW_51_340
*755 TAP_TAPCELL_ROW_51_341
*756 TAP_TAPCELL_ROW_51_342
*757 TAP_TAPCELL_ROW_51_343
*758 TAP_TAPCELL_ROW_52_344
*759 TAP_TAPCELL_ROW_52_345
*760 TAP_TAPCELL_ROW_52_346
*761 TAP_TAPCELL_ROW_52_347
*762 TAP_TAPCELL_ROW_52_348
*763 TAP_TAPCELL_ROW_52_349
*764 TAP_TAPCELL_ROW_52_350
*765 TAP_TAPCELL_ROW_53_351
*766 TAP_TAPCELL_ROW_53_352
*767 TAP_TAPCELL_ROW_53_353
*768 TAP_TAPCELL_ROW_53_354
*769 TAP_TAPCELL_ROW_53_355
*770 TAP_TAPCELL_ROW_53_356
*771 TAP_TAPCELL_ROW_54_357
*772 TAP_TAPCELL_ROW_54_358
*773 TAP_TAPCELL_ROW_54_359
*774 TAP_TAPCELL_ROW_54_360
*775 TAP_TAPCELL_ROW_54_361
*776 TAP_TAPCELL_ROW_54_362
*777 TAP_TAPCELL_ROW_54_363
*778 TAP_TAPCELL_ROW_55_364
*779 TAP_TAPCELL_ROW_55_365
*780 TAP_TAPCELL_ROW_55_366
*781 TAP_TAPCELL_ROW_55_367
*782 TAP_TAPCELL_ROW_55_368
*783 TAP_TAPCELL_ROW_55_369
*784 TAP_TAPCELL_ROW_56_370
*785 TAP_TAPCELL_ROW_56_371
*786 TAP_TAPCELL_ROW_56_372
*787 TAP_TAPCELL_ROW_56_373
*788 TAP_TAPCELL_ROW_56_374
*789 TAP_TAPCELL_ROW_56_375
*790 TAP_TAPCELL_ROW_56_376
*791 TAP_TAPCELL_ROW_57_377
*792 TAP_TAPCELL_ROW_57_378
*793 TAP_TAPCELL_ROW_57_379
*794 TAP_TAPCELL_ROW_57_380
*795 TAP_TAPCELL_ROW_57_381
*796 TAP_TAPCELL_ROW_57_382
*797 TAP_TAPCELL_ROW_58_383
*798 TAP_TAPCELL_ROW_58_384
*799 TAP_TAPCELL_ROW_58_385
*800 TAP_TAPCELL_ROW_58_386
*801 TAP_TAPCELL_ROW_58_387
*802 TAP_TAPCELL_ROW_58_388
*803 TAP_TAPCELL_ROW_58_389
*804 TAP_TAPCELL_ROW_59_390
*805 TAP_TAPCELL_ROW_59_391
*806 TAP_TAPCELL_ROW_59_392
*807 TAP_TAPCELL_ROW_59_393
*808 TAP_TAPCELL_ROW_59_394
*809 TAP_TAPCELL_ROW_59_395
*810 TAP_TAPCELL_ROW_60_396
*811 TAP_TAPCELL_ROW_60_397
*812 TAP_TAPCELL_ROW_60_398
*813 TAP_TAPCELL_ROW_60_399
*814 TAP_TAPCELL_ROW_60_400
*815 TAP_TAPCELL_ROW_60_401
*816 TAP_TAPCELL_ROW_60_402
*817 TAP_TAPCELL_ROW_61_403
*818 TAP_TAPCELL_ROW_61_404
*819 TAP_TAPCELL_ROW_61_405
*820 TAP_TAPCELL_ROW_61_406
*821 TAP_TAPCELL_ROW_61_407
*822 TAP_TAPCELL_ROW_61_408
*823 TAP_TAPCELL_ROW_62_409
*824 TAP_TAPCELL_ROW_62_410
*825 TAP_TAPCELL_ROW_62_411
*826 TAP_TAPCELL_ROW_62_412
*827 TAP_TAPCELL_ROW_62_413
*828 TAP_TAPCELL_ROW_62_414
*829 TAP_TAPCELL_ROW_62_415
*830 TAP_TAPCELL_ROW_63_416
*831 TAP_TAPCELL_ROW_63_417
*832 TAP_TAPCELL_ROW_63_418
*833 TAP_TAPCELL_ROW_63_419
*834 TAP_TAPCELL_ROW_63_420
*835 TAP_TAPCELL_ROW_63_421
*836 TAP_TAPCELL_ROW_64_422
*837 TAP_TAPCELL_ROW_64_423
*838 TAP_TAPCELL_ROW_64_424
*839 TAP_TAPCELL_ROW_64_425
*840 TAP_TAPCELL_ROW_64_426
*841 TAP_TAPCELL_ROW_64_427
*842 TAP_TAPCELL_ROW_64_428
*843 TAP_TAPCELL_ROW_65_429
*844 TAP_TAPCELL_ROW_65_430
*845 TAP_TAPCELL_ROW_65_431
*846 TAP_TAPCELL_ROW_65_432
*847 TAP_TAPCELL_ROW_65_433
*848 TAP_TAPCELL_ROW_65_434
*849 TAP_TAPCELL_ROW_66_435
*850 TAP_TAPCELL_ROW_66_436
*851 TAP_TAPCELL_ROW_66_437
*852 TAP_TAPCELL_ROW_66_438
*853 TAP_TAPCELL_ROW_66_439
*854 TAP_TAPCELL_ROW_66_440
*855 TAP_TAPCELL_ROW_66_441
*856 TAP_TAPCELL_ROW_67_442
*857 TAP_TAPCELL_ROW_67_443
*858 TAP_TAPCELL_ROW_67_444
*859 TAP_TAPCELL_ROW_67_445
*860 TAP_TAPCELL_ROW_67_446
*861 TAP_TAPCELL_ROW_67_447
*862 TAP_TAPCELL_ROW_68_448
*863 TAP_TAPCELL_ROW_68_449
*864 TAP_TAPCELL_ROW_68_450
*865 TAP_TAPCELL_ROW_68_451
*866 TAP_TAPCELL_ROW_68_452
*867 TAP_TAPCELL_ROW_68_453
*868 TAP_TAPCELL_ROW_68_454
*869 TAP_TAPCELL_ROW_68_455
*870 TAP_TAPCELL_ROW_68_456
*871 TAP_TAPCELL_ROW_68_457
*872 TAP_TAPCELL_ROW_68_458
*873 TAP_TAPCELL_ROW_68_459
*874 TAP_TAPCELL_ROW_68_460
*875 output4
*876 output5
*877 output6
*878 output7
*879 output8
*880 clkbuf_0_clk
*881 place10
*882 clkbuf_2_0__f_clk
*883 clkbuf_2_1__f_clk
*884 clkbuf_2_2__f_clk
*885 clkbuf_2_3__f_clk
*886 clkload0
*887 clkload1
*888 clkload2
*889 FILLER_0_0
*890 FILLER_0_8
*891 FILLER_0_16
*892 FILLER_0_24
*893 FILLER_0_28
*894 FILLER_0_31
*895 FILLER_0_39
*896 FILLER_0_47
*897 FILLER_0_55
*898 FILLER_0_59
*899 FILLER_0_61
*900 FILLER_0_69
*901 FILLER_0_77
*902 FILLER_0_85
*903 FILLER_0_89
*904 FILLER_0_91
*905 FILLER_0_99
*906 FILLER_0_107
*907 FILLER_0_115
*908 FILLER_0_119
*909 FILLER_0_121
*910 FILLER_0_129
*911 FILLER_0_137
*912 FILLER_0_145
*913 FILLER_0_149
*914 FILLER_0_151
*915 FILLER_0_159
*916 FILLER_0_167
*917 FILLER_0_175
*918 FILLER_0_179
*919 FILLER_0_181
*920 FILLER_0_189
*921 FILLER_0_197
*922 FILLER_0_205
*923 FILLER_0_209
*924 FILLER_0_211
*925 FILLER_0_219
*926 FILLER_0_227
*927 FILLER_0_235
*928 FILLER_0_239
*929 FILLER_0_241
*930 FILLER_0_249
*931 FILLER_0_257
*932 FILLER_0_265
*933 FILLER_0_269
*934 FILLER_0_271
*935 FILLER_0_279
*936 FILLER_0_287
*937 FILLER_0_295
*938 FILLER_0_299
*939 FILLER_0_301
*940 FILLER_0_309
*941 FILLER_0_317
*942 FILLER_0_325
*943 FILLER_0_329
*944 FILLER_0_331
*945 FILLER_0_339
*946 FILLER_0_347
*947 FILLER_0_355
*948 FILLER_0_359
*949 FILLER_0_361
*950 FILLER_0_369
*951 FILLER_0_377
*952 FILLER_0_385
*953 FILLER_0_389
*954 FILLER_0_391
*955 FILLER_0_399
*956 FILLER_0_407
*957 FILLER_0_411
*958 FILLER_1_0
*959 FILLER_1_8
*960 FILLER_1_16
*961 FILLER_1_24
*962 FILLER_1_32
*963 FILLER_1_40
*964 FILLER_1_48
*965 FILLER_1_56
*966 FILLER_1_61
*967 FILLER_1_69
*968 FILLER_1_77
*969 FILLER_1_85
*970 FILLER_1_93
*971 FILLER_1_101
*972 FILLER_1_109
*973 FILLER_1_117
*974 FILLER_1_119
*975 FILLER_1_121
*976 FILLER_1_129
*977 FILLER_1_137
*978 FILLER_1_145
*979 FILLER_1_153
*980 FILLER_1_161
*981 FILLER_1_169
*982 FILLER_1_177
*983 FILLER_1_179
*984 FILLER_1_181
*985 FILLER_1_189
*986 FILLER_1_197
*987 FILLER_1_205
*988 FILLER_1_213
*989 FILLER_1_221
*990 FILLER_1_229
*991 FILLER_1_237
*992 FILLER_1_239
*993 FILLER_1_241
*994 FILLER_1_249
*995 FILLER_1_257
*996 FILLER_1_265
*997 FILLER_1_273
*998 FILLER_1_281
*999 FILLER_1_289
*1000 FILLER_1_297
*1001 FILLER_1_299
*1002 FILLER_1_301
*1003 FILLER_1_309
*1004 FILLER_1_317
*1005 FILLER_1_325
*1006 FILLER_1_333
*1007 FILLER_1_341
*1008 FILLER_1_349
*1009 FILLER_1_357
*1010 FILLER_1_359
*1011 FILLER_1_361
*1012 FILLER_1_369
*1013 FILLER_1_377
*1014 FILLER_1_385
*1015 FILLER_1_393
*1016 FILLER_1_401
*1017 FILLER_1_409
*1018 FILLER_2_0
*1019 FILLER_2_8
*1020 FILLER_2_16
*1021 FILLER_2_24
*1022 FILLER_2_28
*1023 FILLER_2_31
*1024 FILLER_2_39
*1025 FILLER_2_47
*1026 FILLER_2_55
*1027 FILLER_2_63
*1028 FILLER_2_71
*1029 FILLER_2_79
*1030 FILLER_2_87
*1031 FILLER_2_89
*1032 FILLER_2_91
*1033 FILLER_2_99
*1034 FILLER_2_107
*1035 FILLER_2_115
*1036 FILLER_2_123
*1037 FILLER_2_131
*1038 FILLER_2_139
*1039 FILLER_2_147
*1040 FILLER_2_149
*1041 FILLER_2_151
*1042 FILLER_2_159
*1043 FILLER_2_167
*1044 FILLER_2_175
*1045 FILLER_2_183
*1046 FILLER_2_191
*1047 FILLER_2_199
*1048 FILLER_2_207
*1049 FILLER_2_209
*1050 FILLER_2_211
*1051 FILLER_2_219
*1052 FILLER_2_227
*1053 FILLER_2_235
*1054 FILLER_2_243
*1055 FILLER_2_251
*1056 FILLER_2_259
*1057 FILLER_2_267
*1058 FILLER_2_269
*1059 FILLER_2_271
*1060 FILLER_2_279
*1061 FILLER_2_287
*1062 FILLER_2_295
*1063 FILLER_2_303
*1064 FILLER_2_311
*1065 FILLER_2_319
*1066 FILLER_2_327
*1067 FILLER_2_329
*1068 FILLER_2_331
*1069 FILLER_2_339
*1070 FILLER_2_347
*1071 FILLER_2_355
*1072 FILLER_2_363
*1073 FILLER_2_371
*1074 FILLER_2_379
*1075 FILLER_2_387
*1076 FILLER_2_389
*1077 FILLER_2_391
*1078 FILLER_2_399
*1079 FILLER_2_407
*1080 FILLER_2_411
*1081 FILLER_3_0
*1082 FILLER_3_8
*1083 FILLER_3_16
*1084 FILLER_3_24
*1085 FILLER_3_32
*1086 FILLER_3_40
*1087 FILLER_3_48
*1088 FILLER_3_56
*1089 FILLER_3_61
*1090 FILLER_3_69
*1091 FILLER_3_77
*1092 FILLER_3_85
*1093 FILLER_3_93
*1094 FILLER_3_101
*1095 FILLER_3_109
*1096 FILLER_3_117
*1097 FILLER_3_119
*1098 FILLER_3_121
*1099 FILLER_3_129
*1100 FILLER_3_137
*1101 FILLER_3_145
*1102 FILLER_3_153
*1103 FILLER_3_161
*1104 FILLER_3_169
*1105 FILLER_3_177
*1106 FILLER_3_179
*1107 FILLER_3_181
*1108 FILLER_3_189
*1109 FILLER_3_197
*1110 FILLER_3_205
*1111 FILLER_3_213
*1112 FILLER_3_221
*1113 FILLER_3_229
*1114 FILLER_3_237
*1115 FILLER_3_239
*1116 FILLER_3_241
*1117 FILLER_3_249
*1118 FILLER_3_257
*1119 FILLER_3_265
*1120 FILLER_3_273
*1121 FILLER_3_281
*1122 FILLER_3_289
*1123 FILLER_3_297
*1124 FILLER_3_299
*1125 FILLER_3_301
*1126 FILLER_3_309
*1127 FILLER_3_317
*1128 FILLER_3_325
*1129 FILLER_3_333
*1130 FILLER_3_341
*1131 FILLER_3_349
*1132 FILLER_3_357
*1133 FILLER_3_359
*1134 FILLER_3_361
*1135 FILLER_3_369
*1136 FILLER_3_377
*1137 FILLER_3_385
*1138 FILLER_3_393
*1139 FILLER_3_401
*1140 FILLER_3_409
*1141 FILLER_4_0
*1142 FILLER_4_8
*1143 FILLER_4_16
*1144 FILLER_4_24
*1145 FILLER_4_28
*1146 FILLER_4_31
*1147 FILLER_4_39
*1148 FILLER_4_47
*1149 FILLER_4_55
*1150 FILLER_4_63
*1151 FILLER_4_71
*1152 FILLER_4_79
*1153 FILLER_4_87
*1154 FILLER_4_89
*1155 FILLER_4_91
*1156 FILLER_4_99
*1157 FILLER_4_107
*1158 FILLER_4_115
*1159 FILLER_4_123
*1160 FILLER_4_131
*1161 FILLER_4_139
*1162 FILLER_4_147
*1163 FILLER_4_149
*1164 FILLER_4_151
*1165 FILLER_4_159
*1166 FILLER_4_167
*1167 FILLER_4_175
*1168 FILLER_4_183
*1169 FILLER_4_191
*1170 FILLER_4_199
*1171 FILLER_4_207
*1172 FILLER_4_209
*1173 FILLER_4_211
*1174 FILLER_4_219
*1175 FILLER_4_227
*1176 FILLER_4_235
*1177 FILLER_4_243
*1178 FILLER_4_251
*1179 FILLER_4_259
*1180 FILLER_4_267
*1181 FILLER_4_269
*1182 FILLER_4_271
*1183 FILLER_4_279
*1184 FILLER_4_287
*1185 FILLER_4_295
*1186 FILLER_4_303
*1187 FILLER_4_311
*1188 FILLER_4_319
*1189 FILLER_4_327
*1190 FILLER_4_329
*1191 FILLER_4_331
*1192 FILLER_4_339
*1193 FILLER_4_347
*1194 FILLER_4_355
*1195 FILLER_4_363
*1196 FILLER_4_371
*1197 FILLER_4_379
*1198 FILLER_4_387
*1199 FILLER_4_389
*1200 FILLER_4_391
*1201 FILLER_4_399
*1202 FILLER_4_407
*1203 FILLER_4_411
*1204 FILLER_5_0
*1205 FILLER_5_8
*1206 FILLER_5_16
*1207 FILLER_5_24
*1208 FILLER_5_32
*1209 FILLER_5_40
*1210 FILLER_5_48
*1211 FILLER_5_56
*1212 FILLER_5_61
*1213 FILLER_5_69
*1214 FILLER_5_77
*1215 FILLER_5_85
*1216 FILLER_5_93
*1217 FILLER_5_101
*1218 FILLER_5_109
*1219 FILLER_5_117
*1220 FILLER_5_119
*1221 FILLER_5_121
*1222 FILLER_5_129
*1223 FILLER_5_137
*1224 FILLER_5_145
*1225 FILLER_5_153
*1226 FILLER_5_161
*1227 FILLER_5_169
*1228 FILLER_5_177
*1229 FILLER_5_179
*1230 FILLER_5_181
*1231 FILLER_5_189
*1232 FILLER_5_197
*1233 FILLER_5_205
*1234 FILLER_5_213
*1235 FILLER_5_221
*1236 FILLER_5_229
*1237 FILLER_5_237
*1238 FILLER_5_239
*1239 FILLER_5_241
*1240 FILLER_5_249
*1241 FILLER_5_257
*1242 FILLER_5_265
*1243 FILLER_5_273
*1244 FILLER_5_281
*1245 FILLER_5_289
*1246 FILLER_5_297
*1247 FILLER_5_299
*1248 FILLER_5_301
*1249 FILLER_5_309
*1250 FILLER_5_317
*1251 FILLER_5_325
*1252 FILLER_5_333
*1253 FILLER_5_341
*1254 FILLER_5_349
*1255 FILLER_5_357
*1256 FILLER_5_359
*1257 FILLER_5_361
*1258 FILLER_5_369
*1259 FILLER_5_377
*1260 FILLER_5_385
*1261 FILLER_5_393
*1262 FILLER_5_401
*1263 FILLER_5_409
*1264 FILLER_6_0
*1265 FILLER_6_8
*1266 FILLER_6_16
*1267 FILLER_6_24
*1268 FILLER_6_28
*1269 FILLER_6_31
*1270 FILLER_6_39
*1271 FILLER_6_47
*1272 FILLER_6_55
*1273 FILLER_6_63
*1274 FILLER_6_71
*1275 FILLER_6_79
*1276 FILLER_6_87
*1277 FILLER_6_89
*1278 FILLER_6_91
*1279 FILLER_6_99
*1280 FILLER_6_107
*1281 FILLER_6_115
*1282 FILLER_6_123
*1283 FILLER_6_131
*1284 FILLER_6_139
*1285 FILLER_6_147
*1286 FILLER_6_149
*1287 FILLER_6_151
*1288 FILLER_6_159
*1289 FILLER_6_167
*1290 FILLER_6_175
*1291 FILLER_6_183
*1292 FILLER_6_191
*1293 FILLER_6_199
*1294 FILLER_6_207
*1295 FILLER_6_209
*1296 FILLER_6_211
*1297 FILLER_6_219
*1298 FILLER_6_227
*1299 FILLER_6_235
*1300 FILLER_6_243
*1301 FILLER_6_251
*1302 FILLER_6_259
*1303 FILLER_6_267
*1304 FILLER_6_269
*1305 FILLER_6_271
*1306 FILLER_6_279
*1307 FILLER_6_287
*1308 FILLER_6_295
*1309 FILLER_6_303
*1310 FILLER_6_311
*1311 FILLER_6_319
*1312 FILLER_6_327
*1313 FILLER_6_329
*1314 FILLER_6_331
*1315 FILLER_6_339
*1316 FILLER_6_347
*1317 FILLER_6_355
*1318 FILLER_6_363
*1319 FILLER_6_371
*1320 FILLER_6_379
*1321 FILLER_6_387
*1322 FILLER_6_389
*1323 FILLER_6_391
*1324 FILLER_6_399
*1325 FILLER_6_407
*1326 FILLER_6_411
*1327 FILLER_7_0
*1328 FILLER_7_8
*1329 FILLER_7_16
*1330 FILLER_7_24
*1331 FILLER_7_32
*1332 FILLER_7_40
*1333 FILLER_7_48
*1334 FILLER_7_56
*1335 FILLER_7_61
*1336 FILLER_7_69
*1337 FILLER_7_77
*1338 FILLER_7_85
*1339 FILLER_7_93
*1340 FILLER_7_101
*1341 FILLER_7_109
*1342 FILLER_7_117
*1343 FILLER_7_119
*1344 FILLER_7_121
*1345 FILLER_7_129
*1346 FILLER_7_137
*1347 FILLER_7_145
*1348 FILLER_7_153
*1349 FILLER_7_161
*1350 FILLER_7_169
*1351 FILLER_7_177
*1352 FILLER_7_179
*1353 FILLER_7_181
*1354 FILLER_7_189
*1355 FILLER_7_197
*1356 FILLER_7_205
*1357 FILLER_7_213
*1358 FILLER_7_221
*1359 FILLER_7_229
*1360 FILLER_7_237
*1361 FILLER_7_239
*1362 FILLER_7_241
*1363 FILLER_7_249
*1364 FILLER_7_257
*1365 FILLER_7_265
*1366 FILLER_7_273
*1367 FILLER_7_281
*1368 FILLER_7_289
*1369 FILLER_7_297
*1370 FILLER_7_299
*1371 FILLER_7_301
*1372 FILLER_7_309
*1373 FILLER_7_317
*1374 FILLER_7_325
*1375 FILLER_7_333
*1376 FILLER_7_341
*1377 FILLER_7_349
*1378 FILLER_7_357
*1379 FILLER_7_359
*1380 FILLER_7_361
*1381 FILLER_7_369
*1382 FILLER_7_377
*1383 FILLER_7_385
*1384 FILLER_7_393
*1385 FILLER_7_401
*1386 FILLER_7_409
*1387 FILLER_8_0
*1388 FILLER_8_8
*1389 FILLER_8_16
*1390 FILLER_8_24
*1391 FILLER_8_28
*1392 FILLER_8_31
*1393 FILLER_8_39
*1394 FILLER_8_47
*1395 FILLER_8_55
*1396 FILLER_8_63
*1397 FILLER_8_71
*1398 FILLER_8_79
*1399 FILLER_8_87
*1400 FILLER_8_89
*1401 FILLER_8_91
*1402 FILLER_8_99
*1403 FILLER_8_107
*1404 FILLER_8_115
*1405 FILLER_8_123
*1406 FILLER_8_131
*1407 FILLER_8_139
*1408 FILLER_8_147
*1409 FILLER_8_149
*1410 FILLER_8_151
*1411 FILLER_8_159
*1412 FILLER_8_167
*1413 FILLER_8_175
*1414 FILLER_8_183
*1415 FILLER_8_191
*1416 FILLER_8_199
*1417 FILLER_8_207
*1418 FILLER_8_209
*1419 FILLER_8_211
*1420 FILLER_8_219
*1421 FILLER_8_227
*1422 FILLER_8_235
*1423 FILLER_8_243
*1424 FILLER_8_251
*1425 FILLER_8_259
*1426 FILLER_8_267
*1427 FILLER_8_269
*1428 FILLER_8_271
*1429 FILLER_8_279
*1430 FILLER_8_287
*1431 FILLER_8_295
*1432 FILLER_8_303
*1433 FILLER_8_311
*1434 FILLER_8_319
*1435 FILLER_8_327
*1436 FILLER_8_329
*1437 FILLER_8_331
*1438 FILLER_8_339
*1439 FILLER_8_347
*1440 FILLER_8_355
*1441 FILLER_8_363
*1442 FILLER_8_371
*1443 FILLER_8_379
*1444 FILLER_8_387
*1445 FILLER_8_389
*1446 FILLER_8_391
*1447 FILLER_8_399
*1448 FILLER_8_407
*1449 FILLER_8_411
*1450 FILLER_9_0
*1451 FILLER_9_8
*1452 FILLER_9_16
*1453 FILLER_9_24
*1454 FILLER_9_32
*1455 FILLER_9_40
*1456 FILLER_9_48
*1457 FILLER_9_56
*1458 FILLER_9_61
*1459 FILLER_9_69
*1460 FILLER_9_77
*1461 FILLER_9_85
*1462 FILLER_9_93
*1463 FILLER_9_101
*1464 FILLER_9_109
*1465 FILLER_9_117
*1466 FILLER_9_119
*1467 FILLER_9_121
*1468 FILLER_9_129
*1469 FILLER_9_137
*1470 FILLER_9_145
*1471 FILLER_9_153
*1472 FILLER_9_161
*1473 FILLER_9_169
*1474 FILLER_9_177
*1475 FILLER_9_179
*1476 FILLER_9_181
*1477 FILLER_9_189
*1478 FILLER_9_197
*1479 FILLER_9_205
*1480 FILLER_9_213
*1481 FILLER_9_221
*1482 FILLER_9_229
*1483 FILLER_9_237
*1484 FILLER_9_239