*SPEF "ieee 1481-1999"
*DESIGN "array_multiplier"
*DATE "08:18:55 Tuesday July 07, 2026"
*VENDOR "The OpenROAD Project"
*PROGRAM "OpenROAD"
*VERSION "26Q1-1392-g93cb34c5d4"
*DESIGN_FLOW "NAME_SCOPE LOCAL" "PIN_CAP NONE"
*DIVIDER /
*DELIMITER :
*BUS_DELIMITER []
*T_UNIT 1 NS
*C_UNIT 1 PF
*R_UNIT 1 OHM
*L_UNIT 1 HENRY

*NAME_MAP
*1 _00_
*2 _01_
*3 _02_
*4 _03_
*5 _04_
*6 _05_
*7 _06_
*8 _07_
*9 _08_
*10 _09_
*11 _10_
*12 _11_
*13 _12_
*14 _13_
*15 _14_
*16 _15_
*17 _16_
*18 _17_
*19 _18_
*20 _19_
*21 _20_
*22 _21_
*23 _22_
*24 _23_
*25 _24_
*26 _25_
*27 _26_
*28 _27_
*29 _28_
*30 _29_
*31 _30_
*32 _31_
*33 _32_
*34 _33_
*35 _34_
*36 _35_
*37 _36_
*38 _37_
*39 _38_
*40 _39_
*41 _40_
*42 _41_
*43 b[2]
*44 b[1]
*45 b[0]
*46 a[3]
*47 a[2]
*48 a[0]
*49 a[1]
*50 net1
*51 net2
*52 net3
*53 net4
*54 net5
*55 net6
*56 net7
*57 net8
*58 net9
*59 net10
*60 net11
*61 net12
*62 net13
*63 net14
*64 net15
*65 net16
*68 b[3]
*69 p[0]
*70 p[1]
*71 p[2]
*72 p[3]
*73 p[4]
*74 p[5]
*75 p[6]
*76 p[7]
*77 _42_
*78 _43_
*79 _44_
*80 _45_
*81 _46_
*82 _47_
*83 _48_
*84 _49_
*85 _50_
*86 _51_
*87 _52_
*88 _53_
*89 _54_
*90 _55_
*91 _56_
*92 _57_
*93 _58_
*94 _59_
*95 _60_
*96 _61_
*97 _62_
*98 _63_
*99 _64_
*100 _65_
*101 _66_
*102 _67_
*103 _68_
*104 _69_
*105 _70_
*106 _71_
*107 _72_
*108 _73_
*109 _74_
*110 _75_
*111 _76_
*112 _77_
*113 _78_
*114 _79_
*115 input7
*116 input6
*117 input5
*118 input4
*119 input3
*120 input2
*121 input1
*122 TAP_TAPCELL_ROW_0_0
*123 TAP_TAPCELL_ROW_0_1
*124 TAP_TAPCELL_ROW_0_2
*125 TAP_TAPCELL_ROW_0_3
*126 TAP_TAPCELL_ROW_0_4
*127 TAP_TAPCELL_ROW_0_5
*128 TAP_TAPCELL_ROW_1_6
*129 TAP_TAPCELL_ROW_1_7
*130 TAP_TAPCELL_ROW_1_8
*131 TAP_TAPCELL_ROW_2_9
*132 TAP_TAPCELL_ROW_2_10
*133 TAP_TAPCELL_ROW_2_11
*134 TAP_TAPCELL_ROW_3_12
*135 TAP_TAPCELL_ROW_3_13
*136 TAP_TAPCELL_ROW_3_14
*137 TAP_TAPCELL_ROW_4_15
*138 TAP_TAPCELL_ROW_4_16
*139 TAP_TAPCELL_ROW_4_17
*140 TAP_TAPCELL_ROW_5_18
*141 TAP_TAPCELL_ROW_5_19
*142 TAP_TAPCELL_ROW_5_20
*143 TAP_TAPCELL_ROW_6_21
*144 TAP_TAPCELL_ROW_6_22
*145 TAP_TAPCELL_ROW_6_23
*146 TAP_TAPCELL_ROW_7_24
*147 TAP_TAPCELL_ROW_7_25
*148 TAP_TAPCELL_ROW_7_26
*149 TAP_TAPCELL_ROW_8_27
*150 TAP_TAPCELL_ROW_8_28
*151 TAP_TAPCELL_ROW_8_29
*152 TAP_TAPCELL_ROW_9_30
*153 TAP_TAPCELL_ROW_9_31
*154 TAP_TAPCELL_ROW_9_32
*155 TAP_TAPCELL_ROW_10_33
*156 TAP_TAPCELL_ROW_10_34
*157 TAP_TAPCELL_ROW_10_35
*158 TAP_TAPCELL_ROW_11_36
*159 TAP_TAPCELL_ROW_11_37
*160 TAP_TAPCELL_ROW_11_38
*161 TAP_TAPCELL_ROW_12_39
*162 TAP_TAPCELL_ROW_12_40
*163 TAP_TAPCELL_ROW_12_41
*164 TAP_TAPCELL_ROW_13_42
*165 TAP_TAPCELL_ROW_13_43
*166 TAP_TAPCELL_ROW_13_44
*167 TAP_TAPCELL_ROW_14_45
*168 TAP_TAPCELL_ROW_14_46
*169 TAP_TAPCELL_ROW_14_47
*170 TAP_TAPCELL_ROW_15_48
*171 TAP_TAPCELL_ROW_15_49
*172 TAP_TAPCELL_ROW_15_50
*173 TAP_TAPCELL_ROW_16_51
*174 TAP_TAPCELL_ROW_16_52
*175 TAP_TAPCELL_ROW_16_53
*176 TAP_TAPCELL_ROW_17_54
*177 TAP_TAPCELL_ROW_17_55
*178 TAP_TAPCELL_ROW_17_56
*179 TAP_TAPCELL_ROW_18_57
*180 TAP_TAPCELL_ROW_18_58
*181 TAP_TAPCELL_ROW_18_59
*182 TAP_TAPCELL_ROW_19_60
*183 TAP_TAPCELL_ROW_19_61
*184 TAP_TAPCELL_ROW_19_62
*185 TAP_TAPCELL_ROW_20_63
*186 TAP_TAPCELL_ROW_20_64
*187 TAP_TAPCELL_ROW_20_65
*188 TAP_TAPCELL_ROW_21_66
*189 TAP_TAPCELL_ROW_21_67
*190 TAP_TAPCELL_ROW_21_68
*191 TAP_TAPCELL_ROW_22_69
*192 TAP_TAPCELL_ROW_22_70
*193 TAP_TAPCELL_ROW_22_71
*194 TAP_TAPCELL_ROW_23_72
*195 TAP_TAPCELL_ROW_23_73
*196 TAP_TAPCELL_ROW_23_74
*197 TAP_TAPCELL_ROW_24_75
*198 TAP_TAPCELL_ROW_24_76
*199 TAP_TAPCELL_ROW_24_77
*200 TAP_TAPCELL_ROW_25_78
*201 TAP_TAPCELL_ROW_25_79
*202 TAP_TAPCELL_ROW_25_80
*203 TAP_TAPCELL_ROW_26_81
*204 TAP_TAPCELL_ROW_26_82
*205 TAP_TAPCELL_ROW_26_83
*206 TAP_TAPCELL_ROW_27_84
*207 TAP_TAPCELL_ROW_27_85
*208 TAP_TAPCELL_ROW_27_86
*209 TAP_TAPCELL_ROW_28_87
*210 TAP_TAPCELL_ROW_28_88
*211 TAP_TAPCELL_ROW_28_89
*212 TAP_TAPCELL_ROW_29_90
*213 TAP_TAPCELL_ROW_29_91
*214 TAP_TAPCELL_ROW_29_92
*215 TAP_TAPCELL_ROW_30_93
*216 TAP_TAPCELL_ROW_30_94
*217 TAP_TAPCELL_ROW_30_95
*218 TAP_TAPCELL_ROW_31_96
*219 TAP_TAPCELL_ROW_31_97
*220 TAP_TAPCELL_ROW_31_98
*221 TAP_TAPCELL_ROW_31_99
*222 TAP_TAPCELL_ROW_31_100
*223 TAP_TAPCELL_ROW_31_101
*224 input8
*225 output9
*226 output10
*227 output11
*228 output12
*229 output13
*230 output14
*231 output15
*232 output16
*233 FILLER_0_0
*234 FILLER_0_8
*235 FILLER_0_16
*236 FILLER_0_24
*237 FILLER_0_28
*238 FILLER_0_31
*239 FILLER_0_39
*240 FILLER_0_47
*241 FILLER_0_55
*242 FILLER_0_59
*243 FILLER_0_61
*244 FILLER_0_69
*245 FILLER_0_77
*246 FILLER_0_85
*247 FILLER_0_89
*248 FILLER_0_91
*249 FILLER_0_99
*250 FILLER_0_107
*251 FILLER_0_115
*252 FILLER_0_119
*253 FILLER_0_121
*254 FILLER_0_129
*255 FILLER_0_137
*256 FILLER_0_145
*257 FILLER_0_149
*258 FILLER_0_151
*259 FILLER_0_159
*260 FILLER_0_167
*261 FILLER_0_175
*262 FILLER_0_179
*263 FILLER_0_181
*264 FILLER_0_189
*265 FILLER_0_191
*266 FILLER_1_0
*267 FILLER_1_8
*268 FILLER_1_16
*269 FILLER_1_24
*270 FILLER_1_32
*271 FILLER_1_40
*272 FILLER_1_48
*273 FILLER_1_56
*274 FILLER_1_61
*275 FILLER_1_69
*276 FILLER_1_77
*277 FILLER_1_85
*278 FILLER_1_93
*279 FILLER_1_101
*280 FILLER_1_109
*281 FILLER_1_117
*282 FILLER_1_119
*283 FILLER_1_121
*284 FILLER_1_129
*285 FILLER_1_137
*286 FILLER_1_145
*287 FILLER_1_153
*288 FILLER_1_161
*289 FILLER_1_169
*290 FILLER_1_177
*291 FILLER_1_179
*292 FILLER_1_181
*293 FILLER_1_189
*294 FILLER_1_191
*295 FILLER_2_0
*296 FILLER_2_8
*297 FILLER_2_16
*298 FILLER_2_24
*299 FILLER_2_28
*300 FILLER_2_31
*301 FILLER_2_39
*302 FILLER_2_47
*303 FILLER_2_55
*304 FILLER_2_63
*305 FILLER_2_71
*306 FILLER_2_79
*307 FILLER_2_87
*308 FILLER_2_89
*309 FILLER_2_91
*310 FILLER_2_99
*311 FILLER_2_107
*312 FILLER_2_115
*313 FILLER_2_123
*314 FILLER_2_131
*315 FILLER_2_139
*316 FILLER_2_147
*317 FILLER_2_149
*318 FILLER_2_151
*319 FILLER_2_159
*320 FILLER_2_167
*321 FILLER_2_175
*322 FILLER_2_183
*323 FILLER_2_191
*324 FILLER_3_0
*325 FILLER_3_8
*326 FILLER_3_16
*327 FILLER_3_24
*328 FILLER_3_32
*329 FILLER_3_40
*330 FILLER_3_48
*331 FILLER_3_56
*332 FILLER_3_61
*333 FILLER_3_69
*334 FILLER_3_77
*335 FILLER_3_85
*336 FILLER_3_93
*337 FILLER_3_101
*338 FILLER_3_109
*339 FILLER_3_117
*340 FILLER_3_119
*341 FILLER_3_121
*342 FILLER_3_129
*343 FILLER_3_137
*344 FILLER_3_145
*345 FILLER_3_153
*346 FILLER_3_161
*347 FILLER_3_169
*348 FILLER_3_177
*349 FILLER_3_179
*350 FILLER_3_181
*351 FILLER_3_189
*352 FILLER_3_191
*353 FILLER_4_0
*354 FILLER_4_8
*355 FILLER_4_16
*356 FILLER_4_24
*357 FILLER_4_28
*358 FILLER_4_31
*359 FILLER_4_39
*360 FILLER_4_47
*361 FILLER_4_55
*362 FILLER_4_63
*363 FILLER_4_71
*364 FILLER_4_79
*365 FILLER_4_87
*366 FILLER_4_89
*367 FILLER_4_91
*368 FILLER_4_99
*369 FILLER_4_107
*370 FILLER_4_115
*371 FILLER_4_123
*372 FILLER_4_131
*373 FILLER_4_139
*374 FILLER_4_147
*375 FILLER_4_149
*376 FILLER_4_151
*377 FILLER_4_159
*378 FILLER_4_167
*379 FILLER_4_175
*380 FILLER_4_183
*381 FILLER_4_191
*382 FILLER_5_0
*383 FILLER_5_8
*384 FILLER_5_16
*385 FILLER_5_24
*386 FILLER_5_32
*387 FILLER_5_40
*388 FILLER_5_48
*389 FILLER_5_56
*390 FILLER_5_61
*391 FILLER_5_69
*392 FILLER_5_77
*393 FILLER_5_85
*394 FILLER_5_93
*395 FILLER_5_101
*396 FILLER_5_109
*397 FILLER_5_117
*398 FILLER_5_119
*399 FILLER_5_121
*400 FILLER_5_129
*401 FILLER_5_137
*402 FILLER_5_145
*403 FILLER_5_153
*404 FILLER_5_161
*405 FILLER_5_169
*406 FILLER_5_177
*407 FILLER_5_179
*408 FILLER_5_181
*409 FILLER_5_189
*410 FILLER_5_191
*411 FILLER_6_0
*412 FILLER_6_8
*413 FILLER_6_16
*414 FILLER_6_24
*415 FILLER_6_28
*416 FILLER_6_31
*417 FILLER_6_39
*418 FILLER_6_47
*419 FILLER_6_55
*420 FILLER_6_63
*421 FILLER_6_71
*422 FILLER_6_79
*423 FILLER_6_87
*424 FILLER_6_89
*425 FILLER_6_91
*426 FILLER_6_99
*427 FILLER_6_107
*428 FILLER_6_115
*429 FILLER_6_123
*430 FILLER_6_131
*431 FILLER_6_139
*432 FILLER_6_147
*433 FILLER_6_149
*434 FILLER_6_151
*435 FILLER_6_159
*436 FILLER_6_167
*437 FILLER_6_175
*438 FILLER_6_183
*439 FILLER_6_191
*440 FILLER_7_0
*441 FILLER_7_8
*442 FILLER_7_16
*443 FILLER_7_24
*444 FILLER_7_32
*445 FILLER_7_40
*446 FILLER_7_48
*447 FILLER_7_56
*448 FILLER_7_61
*449 FILLER_7_69
*450 FILLER_7_77
*451 FILLER_7_85
*452 FILLER_7_93
*453 FILLER_7_101
*454 FILLER_7_109
*455 FILLER_7_117
*456 FILLER_7_119
*457 FILLER_7_121
*458 FILLER_7_129
*459 FILLER_7_137
*460 FILLER_7_145
*461 FILLER_7_153
*462 FILLER_7_161
*463 FILLER_7_169
*464 FILLER_7_177
*465 FILLER_7_179
*466 FILLER_7_181
*467 FILLER_7_189
*468 FILLER_7_191
*469 FILLER_8_0
*470 FILLER_8_8
*471 FILLER_8_16
*472 FILLER_8_24
*473 FILLER_8_28
*474 FILLER_8_31
*475 FILLER_8_39
*476 FILLER_8_47
*477 FILLER_8_55
*478 FILLER_8_63
*479 FILLER_8_71
*480 FILLER_8_79
*481 FILLER_8_87
*482 FILLER_8_89
*483 FILLER_8_91
*484 FILLER_8_107
*485 FILLER_8_115
*486 FILLER_8_123
*487 FILLER_8_131
*488 FILLER_8_139
*489 FILLER_8_147
*490 FILLER_8_149
*491 FILLER_8_151
*492 FILLER_8_159
*493 FILLER_8_167
*494 FILLER_8_175
*495 FILLER_8_183
*496 FILLER_8_191
*497 FILLER_9_0
*498 FILLER_9_8
*499 FILLER_9_16
*500 FILLER_9_24
*501 FILLER_9_32
*502 FILLER_9_40
*503 FILLER_9_48
*504 FILLER_9_56
*505 FILLER_9_61
*506 FILLER_9_69
*507 FILLER_9_77
*508 FILLER_9_85
*509 FILLER_9_93
*510 FILLER_9_97
*511 FILLER_9_107
*512 FILLER_9_115
*513 FILLER_9_119
*514 FILLER_9_121
*515 FILLER_9_123
*516 FILLER_9_132
*517 FILLER_9_140
*518 FILLER_9_148
*519 FILLER_9_156
*520 FILLER_9_164
*521 FILLER_9_172
*522 FILLER_9_181
*523 FILLER_9_189
*524 FILLER_9_191
*525 FILLER_10_0
*526 FILLER_10_8
*527 FILLER_10_16
*528 FILLER_10_24
*529 FILLER_10_28
*530 FILLER_10_31
*531 FILLER_10_39
*532 FILLER_10_47
*533 FILLER_10_55
*534 FILLER_10_63
*535 FILLER_10_71
*536 FILLER_10_79
*537 FILLER_10_87
*538 FILLER_10_89
*539 FILLER_10_99
*540 FILLER_10_107
*541 FILLER_10_115
*542 FILLER_10_123
*543 FILLER_10_131
*544 FILLER_10_139
*545 FILLER_10_143
*546 FILLER_10_151
*547 FILLER_10_159
*548 FILLER_10_176
*549 FILLER_10_184
*550 FILLER_11_0
*551 FILLER_11_8
*552 FILLER_11_16
*553 FILLER_11_24
*554 FILLER_11_32
*555 FILLER_11_40
*556 FILLER_11_48
*557 FILLER_11_56
*558 FILLER_11_61
*559 FILLER_11_69
*560 FILLER_11_77
*561 FILLER_11_85
*562 FILLER_11_93
*563 FILLER_11_121
*564 FILLER_11_129
*565 FILLER_11_133
*566 FILLER_11_135
*567 FILLER_11_141
*568 FILLER_11_156
*569 FILLER_11_172
*570 FILLER_11_181
*571 FILLER_11_189
*572 FILLER_11_191
*573 FILLER_12_0
*574 FILLER_12_8
*575 FILLER_12_16
*576 FILLER_12_24
*577 FILLER_12_28
*578 FILLER_12_31
*579 FILLER_12_39
*580 FILLER_12_47
*581 FILLER_12_55
*582 FILLER_12_63
*583 FILLER_12_71
*584 FILLER_12_79
*585 FILLER_12_87
*586 FILLER_12_89
*587 FILLER_12_91
*588 FILLER_12_99
*589 FILLER_12_149
*590 FILLER_12_151
*591 FILLER_12_171
*592 FILLER_12_175
*593 FILLER_12_177
*594 FILLER_12_181
*595 FILLER_12_183
*596 FILLER_13_0
*597 FILLER_13_8
*598 FILLER_13_16
*599 FILLER_13_24
*600 FILLER_13_32
*601 FILLER_13_40
*602 FILLER_13_48
*603 FILLER_13_56
*604 FILLER_13_61
*605 FILLER_13_69
*606 FILLER_13_77
*607 FILLER_13_85
*608 FILLER_13_93
*609 FILLER_13_101
*610 FILLER_13_109
*611 FILLER_13_113
*612 FILLER_13_121
*613 FILLER_13_129
*614 FILLER_13_133
*615 FILLER_13_135
*616 FILLER_13_152
*617 FILLER_13_159
*618 FILLER_13_172
*619 FILLER_13_189
*620 FILLER_13_191
*621 FILLER_14_0
*622 FILLER_14_8
*623 FILLER_14_16
*624 FILLER_14_24
*625 FILLER_14_28
*626 FILLER_14_31
*627 FILLER_14_39
*628 FILLER_14_47
*629 FILLER_14_55
*630 FILLER_14_63
*631 FILLER_14_71
*632 FILLER_14_79
*633 FILLER_14_87
*634 FILLER_14_89
*635 FILLER_14_91
*636 FILLER_14_95
*637 FILLER_14_97
*638 FILLER_14_103
*639 FILLER_14_107
*640 FILLER_14_117
*641 FILLER_14_125
*642 FILLER_14_133
*643 FILLER_14_144
*644 FILLER_14_148
*645 FILLER_14_167
*646 FILLER_14_169
*647 FILLER_14_178
*648 FILLER_14_186
*649 FILLER_14_190
*650 FILLER_15_0
*651 FILLER_15_8
*652 FILLER_15_16
*653 FILLER_15_24
*654 FILLER_15_32
*655 FILLER_15_40
*656 FILLER_15_48
*657 FILLER_15_56
*658 FILLER_15_61
*659 FILLER_15_69
*660 FILLER_15_77
*661 FILLER_15_85
*662 FILLER_15_93
*663 FILLER_15_101
*664 FILLER_15_119
*665 FILLER_15_121
*666 FILLER_15_123
*667 FILLER_15_153
*668 FILLER_15_155
*669 FILLER_15_159
*670 FILLER_15_167
*671 FILLER_15_175
*672 FILLER_15_179
*673 FILLER_15_181
*674 FILLER_15_183
*675 FILLER_16_0
*676 FILLER_16_8
*677 FILLER_16_16
*678 FILLER_16_24
*679 FILLER_16_28
*680 FILLER_16_31
*681 FILLER_16_39
*682 FILLER_16_47
*683 FILLER_16_55
*684 FILLER_16_63
*685 FILLER_16_71
*686 FILLER_16_79
*687 FILLER_16_87
*688 FILLER_16_89
*689 FILLER_16_91
*690 FILLER_16_99
*691 FILLER_16_101
*692 FILLER_16_108
*693 FILLER_16_126
*694 FILLER_16_134
*695 FILLER_16_142
*696 FILLER_16_154
*697 FILLER_16_162
*698 FILLER_16_166
*699 FILLER_16_168
*700 FILLER_16_177
*701 FILLER_16_185
*702 FILLER_16_189
*703 FILLER_16_191
*704 FILLER_17_0
*705 FILLER_17_8
*706 FILLER_17_16
*707 FILLER_17_24
*708 FILLER_17_32
*709 FILLER_17_40
*710 FILLER_17_48
*711 FILLER_17_56
*712 FILLER_17_61
*713 FILLER_17_69
*714 FILLER_17_77
*715 FILLER_17_85
*716 FILLER_17_89
*717 FILLER_17_107
*718 FILLER_17_115
*719 FILLER_17_119
*720 FILLER_17_121
*721 FILLER_17_129
*722 FILLER_17_137
*723 FILLER_17_145
*724 FILLER_17_153
*725 FILLER_17_161
*726 FILLER_17_169
*727 FILLER_17_177
*728 FILLER_17_179
*729 FILLER_17_181
*730 FILLER_17_189
*731 FILLER_17_191
*732 FILLER_18_0
*733 FILLER_18_8
*734 FILLER_18_16
*735 FILLER_18_24
*736 FILLER_18_28
*737 FILLER_18_31
*738 FILLER_18_39
*739 FILLER_18_47
*740 FILLER_18_55
*741 FILLER_18_63
*742 FILLER_18_71
*743 FILLER_18_79
*744 FILLER_18_81
*745 FILLER_18_91
*746 FILLER_18_95
*747 FILLER_18_105
*748 FILLER_18_109
*749 FILLER_18_114
*750 FILLER_18_122
*751 FILLER_18_130
*752 FILLER_18_138
*753 FILLER_18_146
*754 FILLER_18_151
*755 FILLER_18_159
*756 FILLER_18_167
*757 FILLER_18_175
*758 FILLER_18_183
*759 FILLER_18_191
*760 FILLER_19_0
*761 FILLER_19_8
*762 FILLER_19_16
*763 FILLER_19_24
*764 FILLER_19_32
*765 FILLER_19_40
*766 FILLER_19_48
*767 FILLER_19_56
*768 FILLER_19_61
*769 FILLER_19_69
*770 FILLER_19_77
*771 FILLER_19_85
*772 FILLER_19_93
*773 FILLER_19_101
*774 FILLER_19_109
*775 FILLER_19_111
*776 FILLER_19_121
*777 FILLER_19_129
*778 FILLER_19_137
*779 FILLER_19_145
*780 FILLER_19_153
*781 FILLER_19_161
*782 FILLER_19_169
*783 FILLER_19_177
*784 FILLER_19_179
*785 FILLER_19_181
*786 FILLER_19_189
*787 FILLER_19_191
*788 FILLER_20_0
*789 FILLER_20_8
*790 FILLER_20_16
*791 FILLER_20_24
*792 FILLER_20_28
*793 FILLER_20_31
*794 FILLER_20_39
*795 FILLER_20_47
*796 FILLER_20_55
*797 FILLER_20_63
*798 FILLER_20_71
*799 FILLER_20_79
*800 FILLER_20_87
*801 FILLER_20_89
*802 FILLER_20_91
*803 FILLER_20_99
*804 FILLER_20_107
*805 FILLER_20_115
*806 FILLER_20_123
*807 FILLER_20_131
*808 FILLER_20_139
*809 FILLER_20_147
*810 FILLER_20_149
*811 FILLER_20_151
*812 FILLER_20_159
*813 FILLER_20_167
*814 FILLER_20_175
*815 FILLER_20_183
*816 FILLER_20_191
*817 FILLER_21_0
*818 FILLER_21_8
*819 FILLER_21_16
*820 FILLER_21_24
*821 FILLER_21_32
*822 FILLER_21_40
*823 FILLER_21_48
*824 FILLER_21_56
*825 FILLER_21_61
*826 FILLER_21_69
*827 FILLER_21_77
*828 FILLER_21_85
*829 FILLER_21_93
*830 FILLER_21_101
*831 FILLER_21_109
*832 FILLER_21_117
*833 FILLER_21_119
*834 FILLER_21_121
*835 FILLER_21_129
*836 FILLER_21_137
*837 FILLER_21_145
*838 FILLER_21_153
*839 FILLER_21_161
*840 FILLER_21_169
*841 FILLER_21_177
*842 FILLER_21_179
*843 FILLER_21_181
*844 FILLER_21_189
*845 FILLER_21_191
*846 FILLER_22_0
*847 FILLER_22_8
*848 FILLER_22_16
*849 FILLER_22_24
*850 FILLER_22_28
*851 FILLER_22_31
*852 FILLER_22_39
*853 FILLER_22_47
*854 FILLER_22_55
*855 FILLER_22_63
*856 FILLER_22_71
*857 FILLER_22_79
*858 FILLER_22_87
*859 FILLER_22_89
*860 FILLER_22_91
*861 FILLER_22_99
*862 FILLER_22_107
*863 FILLER_22_115
*864 FILLER_22_123
*865 FILLER_22_131
*866 FILLER_22_139
*867 FILLER_22_147
*868 FILLER_22_149
*869 FILLER_22_151
*870 FILLER_22_159
*871 FILLER_22_167
*872 FILLER_22_175
*873 FILLER_22_183
*874 FILLER_22_191
*875 FILLER_23_0
*876 FILLER_23_8
*877 FILLER_23_16
*878 FILLER_23_24
*879 FILLER_23_32
*880 FILLER_23_40
*881 FILLER_23_48
*882 FILLER_23_56
*883 FILLER_23_61
*884 FILLER_23_69
*885 FILLER_23_77
*886 FILLER_23_85
*887 FILLER_23_93
*888 FILLER_23_101
*889 FILLER_23_109
*890 FILLER_23_117
*891 FILLER_23_119
*892 FILLER_23_121
*893 FILLER_23_129
*894 FILLER_23_137
*895 FILLER_23_145
*896 FILLER_23_153
*897 FILLER_23_161
*898 FILLER_23_169
*899 FILLER_23_177
*900 FILLER_23_179
*901 FILLER_23_181
*902 FILLER_23_189
*903 FILLER_23_191
*904 FILLER_24_0
*905 FILLER_24_8
*906 FILLER_24_16
*907 FILLER_24_24
*908 FILLER_24_28
*909 FILLER_24_31
*910 FILLER_24_39
*911 FILLER_24_47
*912 FILLER_24_55
*913 FILLER_24_63
*914 FILLER_24_71
*915 FILLER_24_79
*916 FILLER_24_87
*917 FILLER_24_89
*918 FILLER_24_91
*919 FILLER_24_99
*920 FILLER_24_107
*921 FILLER_24_115
*922 FILLER_24_123
*923 FILLER_24_131
*924 FILLER_24_139
*925 FILLER_24_147
*926 FILLER_24_149
*927 FILLER_24_151
*928 FILLER_24_159
*929 FILLER_24_167
*930 FILLER_24_175
*931 FILLER_24_183
*932 FILLER_24_191
*933 FILLER_25_0
*934 FILLER_25_8
*935 FILLER_25_16
*936 FILLER_25_24
*937 FILLER_25_32
*938 FILLER_25_40
*939 FILLER_25_48
*940 FILLER_25_56
*941 FILLER_25_61
*942 FILLER_25_69
*943 FILLER_25_77
*944 FILLER_25_85
*945 FILLER_25_93
*946 FILLER_25_101
*947 FILLER_25_109
*948 FILLER_25_117
*949 FILLER_25_119
*950 FILLER_25_121
*951 FILLER_25_129
*952 FILLER_25_137
*953 FILLER_25_145
*954 FILLER_25_153
*955 FILLER_25_161
*956 FILLER_25_169
*957 FILLER_25_177
*958 FILLER_25_179
*959 FILLER_25_181
*960 FILLER_25_189
*961 FILLER_25_191
*962 FILLER_26_0
*963 FILLER_26_8
*964 FILLER_26_16
*965 FILLER_26_24
*966 FILLER_26_28
*967 FILLER_26_31
*968 FILLER_26_39
*969 FILLER_26_47
*970 FILLER_26_55
*971 FILLER_26_63
*972 FILLER_26_71
*973 FILLER_26_79
*974 FILLER_26_87
*975 FILLER_26_89
*976 FILLER_26_91
*977 FILLER_26_99
*978 FILLER_26_107
*979 FILLER_26_115
*980 FILLER_26_123
*981 FILLER_26_131
*982 FILLER_26_139
*983 FILLER_26_147
*984 FILLER_26_149
*985 FILLER_26_151
*986 FILLER_26_159
*987 FILLER_26_167
*988 FILLER_26_175
*989 FILLER_26_183
*990 FILLER_26_191
*991 FILLER_27_0
*992 FILLER_27_8
*993 FILLER_27_16
*994 FILLER_27_24
*995 FILLER_27_32
*996 FILLER_27_40
*997 FILLER_27_48
*998 FILLER_27_56
*999 FILLER_27_61
*1000 FILLER_27_69
*1001 FILLER_27_77
*1002 FILLER_27_85
*1003 FILLER_27_93
*1004 FILLER_27_101
*1005 FILLER_27_109
*1006 FILLER_27_117
*1007 FILLER_27_119
*1008 FILLER_27_121
*1009 FILLER_27_129
*1010 FILLER_27_137
*1011 FILLER_27_145
*1012 FILLER_27_153
*1013 FILLER_27_161
*1014 FILLER_27_169
*1015 FILLER_27_177
*1016 FILLER_27_179
*1017 FILLER_27_181
*1018 FILLER_27_189
*1019 FILLER_27_191
*1020 FILLER_28_0
*1021 FILLER_28_8
*1022 FILLER_28_16
*1023 FILLER_28_24
*1024 FILLER_28_28
*1025 FILLER_28_31
*1026 FILLER_28_39
*1027 FILLER_28_47
*1028 FILLER_28_55
*1029 FILLER_28_63
*1030 FILLER_28_71
*1031 FILLER_28_79
*1032 FILLER_28_87
*1033 FILLER_28_89
*1034 FILLER_28_91
*1035 FILLER_28_99
*1036 FILLER_28_107
*1037 FILLER_28_115
*1038 FILLER_28_123
*1039 FILLER_28_131
*1040 FILLER_28_139
*1041 FILLER_28_147
*1042 FILLER_28_149
*1043 FILLER_28_151
*1044 FILLER_28_159
*1045 FILLER_28_167
*1046 FILLER_28_175
*1047 FILLER_28_183
*1048 FILLER_28_191
*1049 FILLER_29_0
*1050 FILLER_29_8
*1051 FILLER_29_16
*1052 FILLER_29_24
*1053 FILLER_29_32
*1054 FILLER_29_40
*1055 FILLER_29_48
*1056 FILLER_29_56
*1057 FILLER_29_61
*1058 FILLER_29_69
*1059 FILLER_29_77
*1060 FILLER_29_85
*1061 FILLER_29_93
*1062 FILLER_29_101
*1063 FILLER_29_109
*1064 FILLER_29_117
*1065 FILLER_29_119
*1066 FILLER_29_121
*1067 FILLER_29_129
*1068 FILLER_29_137
*1069 FILLER_29_145
*1070 FILLER_29_153
*1071 FILLER_29_161
*1072 FILLER_29_169
*1073 FILLER_29_177
*1074 FILLER_29_179
*1075 FILLER_29_181
*1076 FILLER_29_189
*1077 FILLER_29_191
*1078 FILLER_30_0
*1079 FILLER_30_8
*1080 FILLER_30_16
*1081 FILLER_30_24
*1082 FILLER_30_28
*1083 FILLER_30_31
*1084 FILLER_30_39
*1085 FILLER_30_47
*1086 FILLER_30_55
*1087 FILLER_30_63
*1088 FILLER_30_71
*1089 FILLER_30_79
*1090 FILLER_30_87
*1091 FILLER_30_89
*1092 FILLER_30_91
*1093 FILLER_30_99
*1094 FILLER_30_107
*1095 FILLER_30_115
*1096 FILLER_30_123
*1097 FILLER_30_131
*1098 FILLER_30_139
*1099 FILLER_30_147
*1100 FILLER_30_149
*1101 FILLER_30_151
*1102 FILLER_30_159
*1103 FILLER_30_167
*1104 FILLER_30_175
*1105 FILLER_30_183
*1106 FILLER_30_191
*1107 FILLER_31_0
*1108 FILLER_31_8
*1109 FILLER_31_16
*1110 FILLER_31_24
*1111 FILLER_31_28
*1112 FILLER_31_31
*1113 FILLER_31_39
*1114 FILLER_31_47
*1115 FILLER_31_55
*1116 FILLER_31_59
*1117 FILLER_31_61
*1118 FILLER_31_69
*1119 FILLER_31_77
*1120 FILLER_31_85
*1121 FILLER_31_89
*1122 FILLER_31_91
*1123 FILLER_31_99
*1124 FILLER_31_107
*1125 FILLER_31_115
*1126 FILLER_31_119
*1127 FILLER_31_121
*1128 FILLER_31_129
*1129 FILLER_31_137
*1130 FILLER_31_145
*1131 FILLER_31_149
*1132 FILLER_31_151
*1133 FILLER_31_159
*1134 FILLER_31_167
*1135 FILLER_31_175
*1136 FILLER_31_179
*1137 FILLER_31_181
*1138 FILLER_31_189
*1139 FILLER_31_191

*PORTS
a[0] I
a[1] I
a[2] I
a[3] I
b[0] I
b[1] I
b[2] I
b[3] I
p[0] O
p[1] O
p[2] O
p[3] O
p[4] O
p[5] O
p[6] O
p[7] O

*D_NET *1 0.000444606
*CONN
*I *103:A I *D sky130_fd_sc_hd__fa_1
*I *93:X O *D sky130_fd_sc_hd__and2_1
*CAP
1 *103:A 0.000209673
2 *93:X 0.000209673
3 *103:A *93:A 0
4 *103:A *94:B 0
5 *103:A *103:CIN 2.52592e-05
*RES
1 *93:X *103:A 22.1896 
*END

*D_NET *2 0.000302654
*CONN
*I *103:B I *D sky130_fd_sc_hd__fa_1
*I *78:X O *D sky130_fd_sc_hd__and2_1
*CAP
1 *103:B 2.34087e-05
2 *78:X 2.34087e-05
3 *103:B *94:A 4.28174e-05
4 *103:B *52:36 0.000122378
5 *103:B *55:34 9.06411e-05
*RES
1 *78:X *103:B 11.552 
*END

*D_NET *3 0.000682457
*CONN
*I *91:A I *D sky130_fd_sc_hd__inv_1
*I *103:COUT O *D sky130_fd_sc_hd__fa_1
*CAP
1 *91:A 0.000221652
2 *103:COUT 0.000221652
3 *91:A *86:A 7.62471e-05
4 *91:A *93:A 0.000130777
5 *91:A *93:B 0
6 *91:A *53:38 0
7 *91:A *57:31 3.21289e-05
*RES
1 *103:COUT *91:A 33.9417 
*END

*D_NET *4 0.000218483
*CONN
*I *104:A I *D sky130_fd_sc_hd__fa_1
*I *84:Y O *D sky130_fd_sc_hd__nand2_1
*CAP
1 *104:A 0.000109241
2 *84:Y 0.000109241
*RES
1 *84:Y *104:A 20.9116 
*END

*D_NET *5 0.000247382
*CONN
*I *104:B I *D sky130_fd_sc_hd__fa_1
*I *86:Y O *D sky130_fd_sc_hd__nand2_1
*CAP
1 *104:B 7.47741e-05
2 *86:Y 7.47741e-05
3 *104:B *104:CIN 9.78334e-05
*RES
1 *86:Y *104:B 20.4964 
*END

*D_NET *6 0.000417866
*CONN
*I *104:CIN I *D sky130_fd_sc_hd__fa_1
*I *91:Y O *D sky130_fd_sc_hd__inv_1
*CAP
1 *104:CIN 0.000115278
2 *91:Y 0.000115278
3 *104:CIN *57:31 8.94761e-05
4 *104:B *104:CIN 9.78334e-05
*RES
1 *91:Y *104:CIN 30.331 
*END

*D_NET *7 0.000254511
*CONN
*I *97:A I *D sky130_fd_sc_hd__inv_1
*I *104:COUT O *D sky130_fd_sc_hd__fa_1
*CAP
1 *97:A 9.9167e-05
2 *104:COUT 9.9167e-05
3 *97:A *110:A 1.60687e-05
4 *97:A *110:B 3.55412e-05
5 *97:A *110:CIN 4.56697e-06
*RES
1 *104:COUT *97:A 30.065 
*END

*D_NET *8 0.000339703
*CONN
*I *105:A I *D sky130_fd_sc_hd__fa_1
*I *95:X O *D sky130_fd_sc_hd__and2_1
*CAP
1 *105:A 0.000138462
2 *95:X 0.000138462
3 *105:A *106:CIN 0
4 *105:A *51:31 0
5 *105:A *56:20 6.27782e-05
*RES
1 *95:X *105:A 21.2198 
*END

*D_NET *9 0.000503163
*CONN
*I *106:A I *D sky130_fd_sc_hd__fa_1
*I *80:X O *D sky130_fd_sc_hd__and2_1
*CAP
1 *106:A 0.000170933
2 *80:X 0.000170933
3 *106:A *106:B 8.36429e-06
4 *106:A *106:CIN 4.05654e-05
5 *106:A *57:25 0.000112367
*RES
1 *80:X *106:A 22.1896 
*END

*D_NET *10 0.000197946
*CONN
*I *85:A I *D sky130_fd_sc_hd__inv_1
*I *106:COUT O *D sky130_fd_sc_hd__fa_1
*CAP
1 *85:A 8.65639e-05
2 *106:COUT 8.65639e-05
3 *85:A *109:A 2.48184e-05
*RES
1 *106:COUT *85:A 20.9156 
*END

*D_NET *11 0.000349974
*CONN
*I *107:A I *D sky130_fd_sc_hd__fa_1
*I *82:Y O *D sky130_fd_sc_hd__nand2_1
*CAP
1 *107:A 0.000161704
2 *82:Y 0.000161704
3 *107:A *50:8 2.65667e-05
4 *107:A *50:23 0
*RES
1 *82:Y *107:A 21.635 
*END

*D_NET *12 0.000662155
*CONN
*I *107:B I *D sky130_fd_sc_hd__fa_1
*I *87:Y O *D sky130_fd_sc_hd__inv_1
*CAP
1 *107:B 0.000203296
2 *87:Y 0.000203296
3 *107:B *83:B 3.85049e-05
4 *107:B *38:12 0
5 *107:B *50:23 0.000153225
6 *107:B *51:6 4.01825e-05
7 *107:B *51:14 2.36494e-05
*RES
1 *87:Y *107:B 23.0216 
*END

*D_NET *13 0.000686179
*CONN
*I *107:CIN I *D sky130_fd_sc_hd__fa_1
*I *100:Y O *D sky130_fd_sc_hd__inv_1
*CAP
1 *107:CIN 0.000332365
2 *100:Y 0.000332365
3 *107:CIN *51:14 2.14494e-05
*RES
1 *100:Y *107:CIN 25.5996 
*END

*D_NET *14 0.00111059
*CONN
*I *98:A I *D sky130_fd_sc_hd__inv_1
*I *107:COUT O *D sky130_fd_sc_hd__fa_1
*CAP
1 *98:A 0.000340831
2 *107:COUT 0.000340831
3 *98:A *96:A 0.000240353
4 *98:A *108:A 0
5 *98:A *108:B 5.62448e-05
6 *98:A *108:CIN 0
7 *98:A *38:12 0
8 *98:A *50:23 0
9 *98:A *56:20 0
10 *98:A *57:10 0.000132335
*RES
1 *107:COUT *98:A 37.7392 
*END

*D_NET *15 0.000402082
*CONN
*I *89:A I *D sky130_fd_sc_hd__inv_1
*I *107:SUM O *D sky130_fd_sc_hd__fa_1
*CAP
1 *89:A 0.000201041
2 *107:SUM 0.000201041
*RES
1 *107:SUM *89:A 23.3149 
*END

*D_NET *16 0.000357737
*CONN
*I *108:A I *D sky130_fd_sc_hd__fa_1
*I *96:X O *D sky130_fd_sc_hd__and2_1
*CAP
1 *108:A 0.00012955
2 *96:X 0.00012955
3 *108:A *108:CIN 9.86367e-05
4 *98:A *108:A 0
*RES
1 *96:X *108:A 21.2198 
*END

*D_NET *17 0.000303595
*CONN
*I *108:B I *D sky130_fd_sc_hd__fa_1
*I *98:Y O *D sky130_fd_sc_hd__inv_1
*CAP
1 *108:B 0.000104684
2 *98:Y 0.000104684
3 *108:B *57:10 3.79836e-05
4 *98:A *108:B 5.62448e-05
*RES
1 *98:Y *108:B 20.9425 
*END

*D_NET *18 0.000426765
*CONN
*I *109:A I *D sky130_fd_sc_hd__fa_1
*I *85:Y O *D sky130_fd_sc_hd__inv_1
*CAP
1 *109:A 0.000200973
2 *85:Y 0.000200973
3 *85:A *109:A 2.48184e-05
*RES
1 *85:Y *109:A 22.0517 
*END

*D_NET *19 0.00166986
*CONN
*I *109:CIN I *D sky130_fd_sc_hd__fa_1
*I *101:Y O *D sky130_fd_sc_hd__inv_1
*CAP
1 *109:CIN 0.000769536
2 *101:Y 0.000769536
3 *109:CIN *101:A 9.55569e-06
4 *109:CIN *229:A 0.000121231
*RES
1 *101:Y *109:CIN 36.1371 
*END

*D_NET *20 0.000285883
*CONN
*I *88:A I *D sky130_fd_sc_hd__inv_1
*I *109:COUT O *D sky130_fd_sc_hd__fa_1
*CAP
1 *88:A 0.000135352
2 *109:COUT 0.000135352
3 *88:A *110:CIN 1.51793e-05
*RES
1 *109:COUT *88:A 22.0248 
*END

*D_NET *21 0.00117039
*CONN
*I *90:A I *D sky130_fd_sc_hd__inv_1
*I *109:SUM O *D sky130_fd_sc_hd__fa_1
*CAP
1 *90:A 0.000579513
2 *109:SUM 0.000579513
3 *90:A *230:A 1.13647e-05
*RES
1 *109:SUM *90:A 41.4274 
*END

*D_NET *22 0.00136694
*CONN
*I *110:A I *D sky130_fd_sc_hd__fa_1
*I *77:X O *D sky130_fd_sc_hd__and2_1
*CAP
1 *110:A 0.000489948
2 *77:X 0.000489948
3 *110:A *77:B 0.000112367
4 *110:A *110:B 0.000258608
5 *97:A *110:A 1.60687e-05
*RES
1 *77:X *110:A 30.9099 
*END

*D_NET *23 0.000781544
*CONN
*I *110:B I *D sky130_fd_sc_hd__fa_1
*I *97:Y O *D sky130_fd_sc_hd__inv_1
*CAP
1 *110:B 0.000189478
2 *97:Y 0.000189478
3 *110:B *110:CIN 0.000108439
4 *97:A *110:B 3.55412e-05
5 *110:A *110:B 0.000258608
*RES
1 *97:Y *110:B 24.128 
*END

*D_NET *24 0.000601766
*CONN
*I *110:CIN I *D sky130_fd_sc_hd__fa_1
*I *88:Y O *D sky130_fd_sc_hd__inv_1
*CAP
1 *110:CIN 0.00023679
2 *88:Y 0.00023679
3 *88:A *110:CIN 1.51793e-05
4 *97:A *110:CIN 4.56697e-06
5 *110:B *110:CIN 0.000108439
*RES
1 *88:Y *110:CIN 31.9948 
*END

*D_NET *25 0.000453719
*CONN
*I *111:A I *D sky130_fd_sc_hd__ha_1
*I *92:X O *D sky130_fd_sc_hd__and2_1
*CAP
1 *111:A 0.000132055
2 *92:X 0.000132055
3 *111:A *38:12 0.000168153
4 *111:A *53:27 7.34948e-06
5 *111:A *54:14 1.4106e-05
*RES
1 *92:X *111:A 23.1039 
*END

*D_NET *26 0.00107095
*CONN
*I *111:B I *D sky130_fd_sc_hd__ha_1
*I *79:X O *D sky130_fd_sc_hd__and2_1
*CAP
1 *111:B 0.000346847
2 *79:X 0.000346847
3 *111:B *92:B 0
4 *111:B *103:CIN 0
5 *111:B *55:10 0
6 *111:B *55:21 0.000169041
7 *111:B *55:34 0.000208218
*RES
1 *79:X *111:B 34.2118 
*END

*D_NET *27 0.000571537
*CONN
*I *112:A I *D sky130_fd_sc_hd__ha_1
*I *94:X O *D sky130_fd_sc_hd__and2_1
*CAP
1 *112:A 4.23969e-05
2 *94:X 4.23969e-05
3 *112:A *100:A 9.65932e-05
4 *112:A *106:CIN 1.41291e-05
5 *112:A *112:B 0.000175485
6 *112:A *55:34 0.000200536
*RES
1 *94:X *112:A 23.1039 
*END

*D_NET *28 0.000953363
*CONN
*I *112:B I *D sky130_fd_sc_hd__ha_1
*I *81:X O *D sky130_fd_sc_hd__and2_1
*CAP
1 *112:B 7.36754e-05
2 *81:X 7.36754e-05
3 *112:B *81:B 5.28741e-05
4 *112:B *100:A 0.000539309
5 *112:B *55:34 3.83429e-05
6 *112:A *112:B 0.000175485
*RES
1 *81:X *112:B 24.2131 
*END

*D_NET *29 0.0016779
*CONN
*I *100:A I *D sky130_fd_sc_hd__inv_1
*I *112:SUM O *D sky130_fd_sc_hd__ha_1
*CAP
1 *100:A 0.000302687
2 *112:SUM 0.000302687
3 *100:A *81:B 7.61013e-05
4 *100:A *106:CIN 0.000228593
5 *100:A *51:14 0.000131926
6 *112:A *100:A 9.65932e-05
7 *112:B *100:A 0.000539309
*RES
1 *112:SUM *100:A 30.0184 
*END

*D_NET *30 0.000175482
*CONN
*I *87:A I *D sky130_fd_sc_hd__inv_1
*I *113:COUT O *D sky130_fd_sc_hd__ha_1
*CAP
1 *87:A 3.77285e-05
2 *113:COUT 3.77285e-05
3 *87:A *83:B 0.000100025
*RES
1 *113:COUT *87:A 20.0114 
*END

*D_NET *31 0.00105554
*CONN
*I *113:A I *D sky130_fd_sc_hd__ha_1
*I *83:X O *D sky130_fd_sc_hd__and2_1
*CAP
1 *113:A 6.80683e-05
2 *83:X 6.80683e-05
3 *113:A *83:B 0.000403717
4 *113:A *38:12 0.000515682
*RES
1 *83:X *113:A 24.2131 
*END

*D_NET *32 0.000398042
*CONN
*I *113:B I *D sky130_fd_sc_hd__ha_1
*I *99:X O *D sky130_fd_sc_hd__and2_1
*CAP
1 *113:B 0.000141729
2 *99:X 0.000141729
3 *113:B *38:12 0.000114584
*RES
1 *99:X *113:B 30.193 
*END

*D_NET *33 0.000265353
*CONN
*I *101:A I *D sky130_fd_sc_hd__inv_1
*I *114:COUT O *D sky130_fd_sc_hd__ha_1
*CAP
1 *101:A 0.000114462
2 *114:COUT 0.000114462
3 *101:A *229:A 2.6874e-05
4 *109:CIN *101:A 9.55569e-06
*RES
1 *114:COUT *101:A 30.065 
*END

*D_NET *34 0.000717645
*CONN
*I *103:CIN I *D sky130_fd_sc_hd__fa_1
*I *111:COUT O *D sky130_fd_sc_hd__ha_1
*CAP
1 *103:CIN 0.000187131
2 *111:COUT 0.000187131
3 *103:CIN *94:A 0.000268892
4 *103:CIN *53:27 0
5 *103:CIN *53:38 0
6 *103:CIN *55:34 4.92322e-05
7 *103:A *103:CIN 2.52592e-05
8 *111:B *103:CIN 0
*RES
1 *111:COUT *103:CIN 33.5179 
*END

*D_NET *35 0.00191126
*CONN
*I *106:CIN I *D sky130_fd_sc_hd__fa_1
*I *103:SUM O *D sky130_fd_sc_hd__fa_1
*CAP
1 *106:CIN 0.000634435
2 *103:SUM 0.000634435
3 *106:CIN *80:B 4.20184e-06
4 *106:CIN *94:A 6.92705e-05
5 *106:CIN *105:B 0
6 *106:CIN *106:B 0.000274443
7 *106:CIN *55:34 1.119e-05
8 *100:A *106:CIN 0.000228593