*SPEF "ieee 1481-1999"
*DESIGN "seq_detector_0011"
*DATE "06:28:45 Tuesday July 07, 2026"
*VENDOR "The OpenROAD Project"
*PROGRAM "OpenROAD"
*VERSION "26Q1-1392-g93cb34c5d4"
*DESIGN_FLOW "NAME_SCOPE LOCAL" "PIN_CAP NONE"
*DIVIDER /
*DELIMITER :
*BUS_DELIMITER []
*T_UNIT 1 NS
*C_UNIT 1 PF
*R_UNIT 1 OHM
*L_UNIT 1 HENRY

*NAME_MAP
*1 clk
*2 net3
*3 net1
*4 net2
*5 window\[0\]
*6 window\[1\]
*7 window\[2\]
*8 window\[3\]
*11 din
*12 rst_n
*13 detected
*14 clknet_0_clk
*15 clknet_1_0__leaf_clk
*16 clknet_1_1__leaf_clk
*17 _0_
*18 window\[0\]\$_DFF_PN0_
*19 window\[1\]\$_DFF_PN0_
*20 window\[2\]\$_DFF_PN0_
*21 window\[3\]\$_DFF_PN0_
*22 TAP_TAPCELL_ROW_0_0
*23 TAP_TAPCELL_ROW_0_1
*24 TAP_TAPCELL_ROW_0_2
*25 TAP_TAPCELL_ROW_1_3
*26 TAP_TAPCELL_ROW_2_4
*27 TAP_TAPCELL_ROW_2_5
*28 TAP_TAPCELL_ROW_3_6
*29 TAP_TAPCELL_ROW_4_7
*30 TAP_TAPCELL_ROW_4_8
*31 TAP_TAPCELL_ROW_5_9
*32 TAP_TAPCELL_ROW_6_10
*33 TAP_TAPCELL_ROW_6_11
*34 TAP_TAPCELL_ROW_7_12
*35 TAP_TAPCELL_ROW_8_13
*36 TAP_TAPCELL_ROW_8_14
*37 TAP_TAPCELL_ROW_9_15
*38 TAP_TAPCELL_ROW_10_16
*39 TAP_TAPCELL_ROW_10_17
*40 TAP_TAPCELL_ROW_11_18
*41 TAP_TAPCELL_ROW_12_19
*42 TAP_TAPCELL_ROW_12_20
*43 TAP_TAPCELL_ROW_13_21
*44 TAP_TAPCELL_ROW_14_22
*45 TAP_TAPCELL_ROW_14_23
*46 TAP_TAPCELL_ROW_15_24
*47 TAP_TAPCELL_ROW_16_25
*48 TAP_TAPCELL_ROW_16_26
*49 TAP_TAPCELL_ROW_16_27
*50 input1
*51 input2
*52 output3
*53 clkbuf_0_clk
*54 clkbuf_1_0__f_clk
*55 clkbuf_1_1__f_clk
*56 FILLER_0_0
*57 FILLER_0_8
*58 FILLER_0_16
*59 FILLER_0_24
*60 FILLER_0_28
*61 FILLER_0_31
*62 FILLER_0_39
*63 FILLER_0_47
*64 FILLER_0_55
*65 FILLER_0_59
*66 FILLER_0_61
*67 FILLER_0_69
*68 FILLER_0_77
*69 FILLER_0_85
*70 FILLER_0_89
*71 FILLER_0_91
*72 FILLER_0_99
*73 FILLER_0_101
*74 FILLER_1_0
*75 FILLER_1_8
*76 FILLER_1_16
*77 FILLER_1_24
*78 FILLER_1_32
*79 FILLER_1_40
*80 FILLER_1_48
*81 FILLER_1_56
*82 FILLER_1_61
*83 FILLER_1_69
*84 FILLER_1_77
*85 FILLER_1_85
*86 FILLER_1_93
*87 FILLER_1_101
*88 FILLER_2_0
*89 FILLER_2_8
*90 FILLER_2_16
*91 FILLER_2_24
*92 FILLER_2_28
*93 FILLER_2_31
*94 FILLER_2_39
*95 FILLER_2_47
*96 FILLER_2_55
*97 FILLER_2_63
*98 FILLER_2_71
*99 FILLER_2_79
*100 FILLER_2_87
*101 FILLER_2_89
*102 FILLER_2_91
*103 FILLER_2_99
*104 FILLER_2_101
*105 FILLER_3_0
*106 FILLER_3_8
*107 FILLER_3_16
*108 FILLER_3_24
*109 FILLER_3_32
*110 FILLER_3_40
*111 FILLER_3_48
*112 FILLER_3_56
*113 FILLER_3_61
*114 FILLER_3_69
*115 FILLER_3_77
*116 FILLER_3_85
*117 FILLER_3_93
*118 FILLER_3_101
*119 FILLER_4_0
*120 FILLER_4_8
*121 FILLER_4_16
*122 FILLER_4_24
*123 FILLER_4_28
*124 FILLER_4_31
*125 FILLER_4_39
*126 FILLER_4_47
*127 FILLER_4_55
*128 FILLER_4_63
*129 FILLER_4_71
*130 FILLER_4_79
*131 FILLER_4_87
*132 FILLER_4_89
*133 FILLER_4_91
*134 FILLER_4_99
*135 FILLER_4_101
*136 FILLER_5_0
*137 FILLER_5_10
*138 FILLER_5_18
*139 FILLER_5_26
*140 FILLER_5_34
*141 FILLER_5_42
*142 FILLER_5_50
*143 FILLER_5_58
*144 FILLER_5_61
*145 FILLER_5_69
*146 FILLER_5_77
*147 FILLER_5_85
*148 FILLER_5_93
*149 FILLER_5_101
*150 FILLER_6_0
*151 FILLER_6_4
*152 FILLER_6_13
*153 FILLER_6_21
*154 FILLER_6_29
*155 FILLER_6_31
*156 FILLER_6_39
*157 FILLER_6_47
*158 FILLER_6_55
*159 FILLER_6_63
*160 FILLER_6_71
*161 FILLER_6_79
*162 FILLER_6_87
*163 FILLER_6_89
*164 FILLER_6_91
*165 FILLER_6_99
*166 FILLER_6_101
*167 FILLER_7_0
*168 FILLER_7_42
*169 FILLER_7_50
*170 FILLER_7_58
*171 FILLER_7_61
*172 FILLER_7_69
*173 FILLER_7_77
*174 FILLER_7_85
*175 FILLER_7_93
*176 FILLER_7_101
*177 FILLER_8_0
*178 FILLER_8_28
*179 FILLER_8_31
*180 FILLER_8_33
*181 FILLER_8_42
*182 FILLER_8_50
*183 FILLER_8_58
*184 FILLER_8_66
*185 FILLER_8_74
*186 FILLER_8_82
*187 FILLER_8_91
*188 FILLER_8_99
*189 FILLER_8_101
*190 FILLER_9_0
*191 FILLER_9_40
*192 FILLER_9_44
*193 FILLER_9_51
*194 FILLER_9_59
*195 FILLER_9_61
*196 FILLER_9_69
*197 FILLER_9_77
*198 FILLER_9_85
*199 FILLER_9_93
*200 FILLER_9_101
*201 FILLER_10_0
*202 FILLER_10_8
*203 FILLER_10_16
*204 FILLER_10_20
*205 FILLER_10_27
*206 FILLER_10_29
*207 FILLER_10_31
*208 FILLER_10_39
*209 FILLER_10_47
*210 FILLER_10_55
*211 FILLER_10_63
*212 FILLER_10_71
*213 FILLER_10_79
*214 FILLER_10_87
*215 FILLER_10_89
*216 FILLER_10_91
*217 FILLER_10_99
*218 FILLER_10_101
*219 FILLER_11_0
*220 FILLER_11_8
*221 FILLER_11_16
*222 FILLER_11_24
*223 FILLER_11_32
*224 FILLER_11_40
*225 FILLER_11_48
*226 FILLER_11_56
*227 FILLER_11_61
*228 FILLER_11_69
*229 FILLER_11_77
*230 FILLER_11_85
*231 FILLER_11_93
*232 FILLER_11_101
*233 FILLER_12_0
*234 FILLER_12_8
*235 FILLER_12_16
*236 FILLER_12_24
*237 FILLER_12_28
*238 FILLER_12_31
*239 FILLER_12_39
*240 FILLER_12_47
*241 FILLER_12_55
*242 FILLER_12_63
*243 FILLER_12_71
*244 FILLER_12_79
*245 FILLER_12_87
*246 FILLER_12_89
*247 FILLER_12_91
*248 FILLER_12_99
*249 FILLER_12_101
*250 FILLER_13_0
*251 FILLER_13_8
*252 FILLER_13_16
*253 FILLER_13_24
*254 FILLER_13_32
*255 FILLER_13_40
*256 FILLER_13_48
*257 FILLER_13_56
*258 FILLER_13_61
*259 FILLER_13_69
*260 FILLER_13_77
*261 FILLER_13_85
*262 FILLER_13_93
*263 FILLER_13_101
*264 FILLER_14_0
*265 FILLER_14_8
*266 FILLER_14_16
*267 FILLER_14_24
*268 FILLER_14_28
*269 FILLER_14_31
*270 FILLER_14_39
*271 FILLER_14_47
*272 FILLER_14_55
*273 FILLER_14_63
*274 FILLER_14_71
*275 FILLER_14_79
*276 FILLER_14_87
*277 FILLER_14_89
*278 FILLER_14_91
*279 FILLER_14_99
*280 FILLER_14_101
*281 FILLER_15_0
*282 FILLER_15_8
*283 FILLER_15_16
*284 FILLER_15_24
*285 FILLER_15_32
*286 FILLER_15_40
*287 FILLER_15_48
*288 FILLER_15_56
*289 FILLER_15_61
*290 FILLER_15_69
*291 FILLER_15_77
*292 FILLER_15_85
*293 FILLER_15_93
*294 FILLER_15_101
*295 FILLER_16_0
*296 FILLER_16_8
*297 FILLER_16_16
*298 FILLER_16_24
*299 FILLER_16_28
*300 FILLER_16_31
*301 FILLER_16_39
*302 FILLER_16_47
*303 FILLER_16_55
*304 FILLER_16_59
*305 FILLER_16_61
*306 FILLER_16_69
*307 FILLER_16_77
*308 FILLER_16_85
*309 FILLER_16_89
*310 FILLER_16_91
*311 FILLER_16_99
*312 FILLER_16_101

*PORTS
clk I
detected O
din I
rst_n I

*D_NET *1 0.00240542
*CONN
*P clk I
*I *53:A I *D sky130_fd_sc_hd__clkbuf_4
*CAP
1 clk 0.00102179
2 *53:A 0
3 *1:10 0.00102179
4 *1:10 detected 9.1037e-05
5 *1:10 *17:A_N 0
6 *1:10 *17:C 7.59037e-05
7 *1:10 *21:RESET_B 1.34644e-05
8 *1:10 *50:A 9.24224e-05
9 *1:10 *14:13 7.25749e-05
10 *1:10 *14:27 0
11 *1:10 *16:12 1.64301e-05
*RES
1 clk *1:10 13.2739 
2 *1:10 *53:A 13.7491 
*END

*D_NET *2 0.000645987
*CONN
*I *52:A I *D sky130_fd_sc_hd__clkdlybuf4s50_1
*I *17:X O *D sky130_fd_sc_hd__and4bb_2
*CAP
1 *52:A 0.00019708
2 *17:X 0.00019708
3 *52:A *17:A_N 1.17054e-05
4 *52:A *21:D 2.58757e-05
5 *52:A *21:CLK 0.000214245
*RES
1 *17:X *52:A 24.2131 
*END

*D_NET *3 0.000748943
*CONN
*I *18:D I *D sky130_fd_sc_hd__dfrtp_1
*I *50:X O *D sky130_fd_sc_hd__clkdlybuf4s50_1
*CAP
1 *18:D 0.00025955
2 *50:X 0.00025955
3 *18:D *18:CLK 4.26431e-05
4 *18:D *19:CLK 7.92757e-06
5 *18:D *15:10 0.000179271
*RES
1 *50:X *18:D 34.7959 
*END

*D_NET *4 0.00199954
*CONN
*I *18:RESET_B I *D sky130_fd_sc_hd__dfrtp_1
*I *21:RESET_B I *D sky130_fd_sc_hd__dfrtp_1
*I *20:RESET_B I *D sky130_fd_sc_hd__dfrtp_1
*I *19:RESET_B I *D sky130_fd_sc_hd__dfrtp_1
*I *51:X O *D sky130_fd_sc_hd__clkdlybuf4s50_1
*CAP
1 *18:RESET_B 9.75233e-05
2 *21:RESET_B 0.000368719
3 *20:RESET_B 0.000151438
4 *19:RESET_B 0.000438726
5 *51:X 8.69482e-05
6 *4:8 0.000405917
7 *18:RESET_B *17:C 2.90153e-05
8 *18:RESET_B *15:10 0
9 *19:RESET_B *6:20 8.8567e-05
10 *20:RESET_B *6:20 6.45098e-05
11 *20:RESET_B *7:10 6.8479e-05
12 *20:RESET_B *16:12 0.000154404
13 *21:RESET_B *17:C 0
14 *21:RESET_B *19:D 7.34948e-06
15 *4:8 *12:13 2.44829e-05
16 *1:10 *21:RESET_B 1.34644e-05
*RES
1 *51:X *4:8 15.0271 
2 *4:8 *19:RESET_B 9.04726 
3 *4:8 *20:RESET_B 9.32596 
4 *19:RESET_B *21:RESET_B 14.7437 
5 *21:RESET_B *18:RESET_B 11.2472 
*END

*D_NET *5 0.00151254
*CONN
*I *19:D I *D sky130_fd_sc_hd__dfrtp_1
*I *17:C I *D sky130_fd_sc_hd__and4bb_2
*I *18:Q O *D sky130_fd_sc_hd__dfrtp_1
*CAP
1 *19:D 8.48599e-05
2 *17:C 0.000476123
3 *18:Q 0
4 *5:4 0.000560983
5 *17:C *17:B_N 5.03168e-05
6 *17:C *17:D 0.000112361
7 *17:C *19:CLK 2.85274e-05
8 *17:C *21:D 0
9 *17:C *21:CLK 2.49052e-05
10 *17:C *16:12 4.37678e-05
11 *19:D *19:CLK 1.84293e-05
12 *18:RESET_B *17:C 2.90153e-05
13 *21:RESET_B *17:C 0
14 *21:RESET_B *19:D 7.34948e-06
15 *1:10 *17:C 7.59037e-05
*RES
1 *18:Q *5:4 9.24915 
2 *5:4 *17:C 29.4205 
3 *5:4 *19:D 11.6364 
*END

*D_NET *6 0.00305412
*CONN
*I *20:D I *D sky130_fd_sc_hd__dfrtp_1
*I *17:D I *D sky130_fd_sc_hd__and4bb_2
*I *19:Q O *D sky130_fd_sc_hd__dfrtp_1
*CAP
1 *20:D 0
2 *17:D 7.47104e-05
3 *19:Q 0.00102844
4 *6:20 0.00110315
5 *17:D *21:CLK 9.82473e-05
6 *17:D *7:10 6.27332e-05
7 *17:D *16:12 0.000159038
8 *6:20 *7:10 6.91907e-05
9 *6:20 *14:13 3.41376e-05
10 *6:20 *16:12 0.000159032
11 *17:C *17:D 0.000112361
12 *19:RESET_B *6:20 8.8567e-05
13 *20:RESET_B *6:20 6.45098e-05
*RES
1 *19:Q *6:20 47.4624 
2 *6:20 *17:D 12.7456 
3 *6:20 *20:D 9.24915 
*END

*D_NET *7 0.00236135
*CONN
*I *17:B_N I *D sky130_fd_sc_hd__and4bb_2
*I *21:D I *D sky130_fd_sc_hd__dfrtp_1
*I *20:Q O *D sky130_fd_sc_hd__dfrtp_1
*CAP
1 *17:B_N 3.20773e-05
2 *21:D 0.000164496
3 *20:Q 0.000319057
4 *7:10 0.00051563
5 *21:D detected 7.13655e-06
6 *21:D *17:A_N 0.000360313
7 *21:D *21:CLK 0.000202449
8 *7:10 *17:A_N 0.000247026
9 *7:10 *21:CLK 9.99738e-05
10 *7:10 *16:12 0.000136592
11 *17:C *17:B_N 5.03168e-05
12 *17:C *21:D 0
13 *17:D *7:10 6.27332e-05
14 *20:RESET_B *7:10 6.8479e-05
15 *52:A *21:D 2.58757e-05
16 *6:20 *7:10 6.91907e-05
*RES
1 *20:Q *7:10 21.8121 
2 *7:10 *21:D 24.9627 
3 *7:10 *17:B_N 19.2506 
*END

*D_NET *8 0.00196105
*CONN
*I *17:A_N I *D sky130_fd_sc_hd__and4bb_2
*I *21:Q O *D sky130_fd_sc_hd__dfrtp_1
*CAP
1 *17:A_N 0.000671003
2 *21:Q 0.000671003
3 *21:D *17:A_N 0.000360313
4 *52:A *17:A_N 1.17054e-05
5 *1:10 *17:A_N 0
6 *7:10 *17:A_N 0.000247026
*RES
1 *21:Q *17:A_N 39.5007 
*END

*D_NET *11 0.00112676
*CONN
*P din I
*I *50:A I *D sky130_fd_sc_hd__clkdlybuf4s50_1
*CAP
1 din 0.000470956
2 *50:A 0.000470956
3 *50:A detected 9.24224e-05
4 *50:A *15:10 0
5 *1:10 *50:A 9.24224e-05
*RES
1 din *50:A 28.3449 
*END

*D_NET *12 0.00351145
*CONN
*P rst_n I
*I *51:A I *D sky130_fd_sc_hd__clkdlybuf4s50_1
*CAP
1 rst_n 0.00174348
2 *51:A 0
3 *12:13 0.00174348
4 *4:8 *12:13 2.44829e-05
*RES
1 rst_n *12:13 44.3837 
2 *12:13 *51:A 9.24915 
*END

*D_NET *13 0.000808813
*CONN
*P detected O
*I *52:X O *D sky130_fd_sc_hd__clkdlybuf4s50_1
*CAP
1 detected 0.000299539
2 *52:X 0.000299539
3 detected *21:CLK 1.91391e-05
4 *21:D detected 7.13655e-06
5 *50:A detected 9.24224e-05
6 *1:10 detected 9.1037e-05
*RES
1 *52:X detected 18.5541 
*END

*D_NET *14 0.00494311
*CONN
*I *55:A I *D sky130_fd_sc_hd__clkbuf_4
*I *54:A I *D sky130_fd_sc_hd__clkbuf_4
*I *53:X O *D sky130_fd_sc_hd__clkbuf_4
*CAP
1 *55:A 0
2 *54:A 0
3 *53:X 0
4 *14:43 0.000926289
5 *14:27 0.00134835
6 *14:13 0.00240435
7 *14:6 0.000129705
8 *14:27 *15:10 2.77032e-05
9 *1:10 *14:13 7.25749e-05
10 *1:10 *14:27 0
11 *6:20 *14:13 3.41376e-05
*RES
1 *53:X *14:6 13.7491 
2 *14:6 *14:13 7.06942 
3 *14:13 *14:27 9.66639 
4 *14:27 *54:A 13.7491 
5 *14:13 *14:43 5.48007 
6 *14:43 *55:A 13.7491 
*END

*D_NET *15 0.00240274
*CONN
*I *19:CLK I *D sky130_fd_sc_hd__dfrtp_1
*I *18:CLK I *D sky130_fd_sc_hd__dfrtp_1
*I *54:X O *D sky130_fd_sc_hd__clkbuf_4
*CAP
1 *19:CLK 0.000572816
2 *18:CLK 0.000251763
3 *54:X 0.000224541
4 *15:10 0.00104912
5 *17:C *19:CLK 2.85274e-05
6 *18:D *18:CLK 4.26431e-05
7 *18:D *19:CLK 7.92757e-06
8 *18:D *15:10 0.000179271
9 *18:RESET_B *15:10 0
10 *19:D *19:CLK 1.84293e-05
11 *50:A *15:10 0
12 *14:27 *15:10 2.77032e-05
*RES
1 *54:X *15:10 25.0642 
2 *15:10 *18:CLK 14.0718 
3 *15:10 *19:CLK 18.171 
*END

*D_NET *16 0.00413237
*CONN
*I *20:CLK I *D sky130_fd_sc_hd__dfrtp_1
*I *21:CLK I *D sky130_fd_sc_hd__dfrtp_1
*I *55:X O *D sky130_fd_sc_hd__clkbuf_4
*CAP
1 *20:CLK 0
2 *21:CLK 0.000408531
3 *55:X 0.000993544
4 *16:12 0.00140208
5 detected *21:CLK 1.91391e-05
6 *17:C *21:CLK 2.49052e-05
7 *17:C *16:12 4.37678e-05
8 *17:D *21:CLK 9.82473e-05
9 *17:D *16:12 0.000159038
10 *20:RESET_B *16:12 0.000154404
11 *21:D *21:CLK 0.000202449
12 *52:A *21:CLK 0.000214245
13 *1:10 *16:12 1.64301e-05
14 *6:20 *16:12 0.000159032
15 *7:10 *21:CLK 9.99738e-05
16 *7:10 *16:12 0.000136592
*RES
1 *55:X *16:12 34.3937 
2 *16:12 *21:CLK 30.8864 
3 *16:12 *20:CLK 9.24915 
*END
