*SPEF "ieee 1481-1999"
*DESIGN "universal_bcd_decoder"
*DATE "07:59:52 Tuesday July 07, 2026"
*VENDOR "The OpenROAD Project"
*PROGRAM "OpenROAD"
*VERSION "26Q1-1392-g93cb34c5d4"
*DESIGN_FLOW "NAME_SCOPE LOCAL" "PIN_CAP NONE"
*DIVIDER /
*DELIMITER :
*BUS_DELIMITER []
*T_UNIT 1 NS
*C_UNIT 1 PF
*R_UNIT 1 OHM
*L_UNIT 1 HENRY

*NAME_MAP
*1 net1
*2 net2
*3 net3
*4 net4
*5 net5
*6 net6
*7 net7
*8 net15
*9 net16
*10 net17
*11 net18
*12 net19
*13 net20
*14 net21
*15 net8
*16 net22
*17 net9
*18 net10
*19 net11
*20 net12
*21 net13
*22 net14
*23 _000_
*24 _001_
*25 _002_
*26 _003_
*27 _004_
*28 _005_
*29 D
*30 C
*31 _008_
*32 BI
*33 _010_
*34 B
*35 _012_
*36 _013_
*37 _014_
*38 _015_
*39 _016_
*40 AL
*41 _018_
*42 _019_
*43 _020_
*44 _021_
*45 _022_
*46 _023_
*47 _024_
*48 _025_
*49 _026_
*50 _027_
*51 _028_
*52 _029_
*53 _030_
*54 _031_
*55 _032_
*56 _033_
*57 _034_
*58 _035_
*59 _036_
*60 _037_
*61 _038_
*62 _039_
*63 _040_
*64 _041_
*65 A
*66 _043_
*67 _044_
*68 _045_
*69 _046_
*70 _047_
*71 _048_
*72 _049_
*73 _050_
*74 _051_
*75 _052_
*76 _053_
*77 _054_
*78 _055_
*79 _056_
*80 _057_
*81 _058_
*82 _059_
*83 _060_
*84 _061_
*85 _062_
*86 _063_
*87 _064_
*88 _065_
*89 _066_
*90 _067_
*91 _068_
*92 _069_
*93 _070_
*94 _071_
*95 _072_
*96 _073_
*97 _074_
*98 _075_
*99 _076_
*100 _077_
*101 _078_
*102 _079_
*103 _080_
*104 _081_
*105 _082_
*106 _083_
*107 _084_
*108 _085_
*109 _086_
*110 _087_
*111 _088_
*112 _089_
*113 _090_
*114 _091_
*115 _092_
*116 _093_
*117 _094_
*118 _095_
*119 _096_
*120 _097_
*121 _098_
*122 _099_
*123 _100_
*124 _101_
*125 _102_
*126 _103_
*127 _104_
*128 _105_
*129 _106_
*130 Qe
*131 Qd
*132 Qc
*133 _110_
*134 Qb
*135 Qa
*136 X9
*137 _114_
*138 X7
*139 X6
*140 _117_
*141 _118_
*142 _119_
*143 V2
*144 _121_
*145 V1
*146 V0
*147 RBI
*148 LT
*149 _126_
*150 _127_
*151 _128_
*152 _129_
*153 _130_
*154 _131_
*155 _132_
*156 _133_
*157 _134_
*158 _135_
*159 _136_
*160 _137_
*161 _138_
*162 _139_
*163 _140_
*164 _141_
*165 _142_
*166 _143_
*167 _144_
*168 _145_
*169 _146_
*170 _147_
*171 _148_
*172 _149_
*173 _150_
*174 _151_
*175 _152_
*176 _153_
*177 _154_
*178 _155_
*179 _156_
*180 _157_
*181 _158_
*182 _159_
*183 _160_
*184 _161_
*185 _162_
*186 _163_
*187 _164_
*188 _165_
*189 _166_
*190 _167_
*191 _168_
*192 _169_
*193 _170_
*194 _171_
*195 _172_
*196 _173_
*197 _174_
*198 _175_
*199 _176_
*200 _177_
*201 _178_
*202 _179_
*203 _180_
*204 _181_
*205 _182_
*206 _183_
*209 Qf
*210 Qg
*211 RBO
*212 net23
*213 net24
*214 net25
*215 net26
*216 output19
*217 output18
*218 output17
*219 _187_
*220 output16
*221 output15
*222 input14
*223 _191_
*224 input13
*225 input12
*226 _194_
*227 _195_
*228 _196_
*229 input11
*230 _198_
*231 input10
*232 input9
*233 input8
*234 input7
*235 _203_
*236 _204_
*237 _205_
*238 _206_
*239 _207_
*240 _208_
*241 _209_
*242 _210_
*243 _211_
*244 _212_
*245 _213_
*246 _214_
*247 _215_
*248 _216_
*249 _217_
*250 _218_
*251 _219_
*252 _220_
*253 _221_
*254 _222_
*255 _223_
*256 _224_
*257 _225_
*258 _226_
*259 _227_
*260 _228_
*261 _229_
*262 _230_
*263 _231_
*264 _232_
*265 _233_
*266 _234_
*267 _235_
*268 _236_
*269 _237_
*270 _238_
*271 _239_
*272 _240_
*273 _241_
*274 _242_
*275 _243_
*276 _244_
*277 _245_
*278 _246_
*279 _247_
*280 _248_
*281 _249_
*282 _250_
*283 _251_
*284 _252_
*285 _253_
*286 _254_
*287 _255_
*288 _256_
*289 _257_
*290 _258_
*291 _259_
*292 _260_
*293 _261_
*294 _262_
*295 _263_
*296 _264_
*297 _265_
*298 _266_
*299 input6
*300 input5
*301 _269_
*302 input4
*303 _271_
*304 input3
*305 _273_
*306 _274_
*307 _275_
*308 _276_
*309 _277_
*310 input2
*311 _279_
*312 _280_
*313 _281_
*314 _282_
*315 _283_
*316 _284_
*317 _285_
*318 _286_
*319 _287_
*320 _288_
*321 _289_
*322 _290_
*323 _291_
*324 _292_
*325 _293_
*326 _294_
*327 _295_
*328 _296_
*329 _297_
*330 _298_
*331 _299_
*332 _300_
*333 _301_
*334 _302_
*335 _303_
*336 input1
*337 _305_
*338 _306_
*339 _307_
*340 _308_
*341 _309_
*342 _310_
*343 _311_
*344 _312_
*345 _313_
*346 _314_
*347 _315_
*348 _316_
*349 _317_
*350 _318_
*351 _319_
*352 _320_
*353 _321_
*354 _322_
*355 _323_
*356 _324_
*357 _325_
*358 _326_
*359 _327_
*360 _328_
*361 _329_
*362 _330_
*363 _331_
*364 _332_
*365 _333_
*366 _334_
*367 _335_
*368 _336_
*369 _337_
*370 _338_
*371 _339_
*372 _340_
*373 _341_
*374 _342_
*375 _343_
*376 _344_
*377 _345_
*378 _346_
*379 _347_
*380 _348_
*381 _349_
*382 _350_
*383 _351_
*384 _352_
*385 _353_
*386 _354_
*387 _355_
*388 _356_
*389 _357_
*390 _358_
*391 _359_
*392 _360_
*393 _361_
*394 _362_
*395 _363_
*396 _364_
*397 _365_
*398 _366_
*399 _367_
*400 _368_
*401 _369_
*402 _370_
*403 _371_
*404 _372_
*405 _373_
*406 _374_
*407 _375_
*408 TAP_TAPCELL_ROW_0_0
*409 TAP_TAPCELL_ROW_0_1
*410 TAP_TAPCELL_ROW_0_2
*411 TAP_TAPCELL_ROW_0_3
*412 TAP_TAPCELL_ROW_0_4
*413 TAP_TAPCELL_ROW_0_5
*414 TAP_TAPCELL_ROW_0_6
*415 TAP_TAPCELL_ROW_0_7
*416 TAP_TAPCELL_ROW_0_8
*417 TAP_TAPCELL_ROW_0_9
*418 TAP_TAPCELL_ROW_0_10
*419 TAP_TAPCELL_ROW_1_11
*420 TAP_TAPCELL_ROW_1_12
*421 TAP_TAPCELL_ROW_1_13
*422 TAP_TAPCELL_ROW_1_14
*423 TAP_TAPCELL_ROW_1_15
*424 TAP_TAPCELL_ROW_2_16
*425 TAP_TAPCELL_ROW_2_17
*426 TAP_TAPCELL_ROW_2_18
*427 TAP_TAPCELL_ROW_2_19
*428 TAP_TAPCELL_ROW_2_20
*429 TAP_TAPCELL_ROW_2_21
*430 TAP_TAPCELL_ROW_3_22
*431 TAP_TAPCELL_ROW_3_23
*432 TAP_TAPCELL_ROW_3_24
*433 TAP_TAPCELL_ROW_3_25
*434 TAP_TAPCELL_ROW_3_26
*435 TAP_TAPCELL_ROW_4_27
*436 TAP_TAPCELL_ROW_4_28
*437 TAP_TAPCELL_ROW_4_29
*438 TAP_TAPCELL_ROW_4_30
*439 TAP_TAPCELL_ROW_4_31
*440 TAP_TAPCELL_ROW_4_32
*441 TAP_TAPCELL_ROW_5_33
*442 TAP_TAPCELL_ROW_5_34
*443 TAP_TAPCELL_ROW_5_35
*444 TAP_TAPCELL_ROW_5_36
*445 TAP_TAPCELL_ROW_5_37
*446 TAP_TAPCELL_ROW_6_38
*447 TAP_TAPCELL_ROW_6_39
*448 TAP_TAPCELL_ROW_6_40
*449 TAP_TAPCELL_ROW_6_41
*450 TAP_TAPCELL_ROW_6_42
*451 TAP_TAPCELL_ROW_6_43
*452 TAP_TAPCELL_ROW_7_44
*453 TAP_TAPCELL_ROW_7_45
*454 TAP_TAPCELL_ROW_7_46
*455 TAP_TAPCELL_ROW_7_47
*456 TAP_TAPCELL_ROW_7_48
*457 TAP_TAPCELL_ROW_8_49
*458 TAP_TAPCELL_ROW_8_50
*459 TAP_TAPCELL_ROW_8_51
*460 TAP_TAPCELL_ROW_8_52
*461 TAP_TAPCELL_ROW_8_53
*462 TAP_TAPCELL_ROW_8_54
*463 TAP_TAPCELL_ROW_9_55
*464 TAP_TAPCELL_ROW_9_56
*465 TAP_TAPCELL_ROW_9_57
*466 TAP_TAPCELL_ROW_9_58
*467 TAP_TAPCELL_ROW_9_59
*468 TAP_TAPCELL_ROW_10_60
*469 TAP_TAPCELL_ROW_10_61
*470 TAP_TAPCELL_ROW_10_62
*471 TAP_TAPCELL_ROW_10_63
*472 TAP_TAPCELL_ROW_10_64
*473 TAP_TAPCELL_ROW_10_65
*474 TAP_TAPCELL_ROW_11_66
*475 TAP_TAPCELL_ROW_11_67
*476 TAP_TAPCELL_ROW_11_68
*477 TAP_TAPCELL_ROW_11_69
*478 TAP_TAPCELL_ROW_11_70
*479 TAP_TAPCELL_ROW_12_71
*480 TAP_TAPCELL_ROW_12_72
*481 TAP_TAPCELL_ROW_12_73
*482 TAP_TAPCELL_ROW_12_74
*483 TAP_TAPCELL_ROW_12_75
*484 TAP_TAPCELL_ROW_12_76
*485 TAP_TAPCELL_ROW_13_77
*486 TAP_TAPCELL_ROW_13_78
*487 TAP_TAPCELL_ROW_13_79
*488 TAP_TAPCELL_ROW_13_80
*489 TAP_TAPCELL_ROW_13_81
*490 TAP_TAPCELL_ROW_14_82
*491 TAP_TAPCELL_ROW_14_83
*492 TAP_TAPCELL_ROW_14_84
*493 TAP_TAPCELL_ROW_14_85
*494 TAP_TAPCELL_ROW_14_86
*495 TAP_TAPCELL_ROW_14_87
*496 TAP_TAPCELL_ROW_15_88
*497 TAP_TAPCELL_ROW_15_89
*498 TAP_TAPCELL_ROW_15_90
*499 TAP_TAPCELL_ROW_15_91
*500 TAP_TAPCELL_ROW_15_92
*501 TAP_TAPCELL_ROW_16_93
*502 TAP_TAPCELL_ROW_16_94
*503 TAP_TAPCELL_ROW_16_95
*504 TAP_TAPCELL_ROW_16_96
*505 TAP_TAPCELL_ROW_16_97
*506 TAP_TAPCELL_ROW_16_98
*507 TAP_TAPCELL_ROW_17_99
*508 TAP_TAPCELL_ROW_17_100
*509 TAP_TAPCELL_ROW_17_101
*510 TAP_TAPCELL_ROW_17_102
*511 TAP_TAPCELL_ROW_17_103
*512 TAP_TAPCELL_ROW_18_104
*513 TAP_TAPCELL_ROW_18_105
*514 TAP_TAPCELL_ROW_18_106
*515 TAP_TAPCELL_ROW_18_107
*516 TAP_TAPCELL_ROW_18_108
*517 TAP_TAPCELL_ROW_18_109
*518 TAP_TAPCELL_ROW_19_110
*519 TAP_TAPCELL_ROW_19_111
*520 TAP_TAPCELL_ROW_19_112
*521 TAP_TAPCELL_ROW_19_113
*522 TAP_TAPCELL_ROW_19_114
*523 TAP_TAPCELL_ROW_20_115
*524 TAP_TAPCELL_ROW_20_116
*525 TAP_TAPCELL_ROW_20_117
*526 TAP_TAPCELL_ROW_20_118
*527 TAP_TAPCELL_ROW_20_119
*528 TAP_TAPCELL_ROW_20_120
*529 TAP_TAPCELL_ROW_21_121
*530 TAP_TAPCELL_ROW_21_122
*531 TAP_TAPCELL_ROW_21_123
*532 TAP_TAPCELL_ROW_21_124
*533 TAP_TAPCELL_ROW_21_125
*534 TAP_TAPCELL_ROW_22_126
*535 TAP_TAPCELL_ROW_22_127
*536 TAP_TAPCELL_ROW_22_128
*537 TAP_TAPCELL_ROW_22_129
*538 TAP_TAPCELL_ROW_22_130
*539 TAP_TAPCELL_ROW_22_131
*540 TAP_TAPCELL_ROW_23_132
*541 TAP_TAPCELL_ROW_23_133
*542 TAP_TAPCELL_ROW_23_134
*543 TAP_TAPCELL_ROW_23_135
*544 TAP_TAPCELL_ROW_23_136
*545 TAP_TAPCELL_ROW_24_137
*546 TAP_TAPCELL_ROW_24_138
*547 TAP_TAPCELL_ROW_24_139
*548 TAP_TAPCELL_ROW_24_140
*549 TAP_TAPCELL_ROW_24_141
*550 TAP_TAPCELL_ROW_24_142
*551 TAP_TAPCELL_ROW_25_143
*552 TAP_TAPCELL_ROW_25_144
*553 TAP_TAPCELL_ROW_25_145
*554 TAP_TAPCELL_ROW_25_146
*555 TAP_TAPCELL_ROW_25_147
*556 TAP_TAPCELL_ROW_26_148
*557 TAP_TAPCELL_ROW_26_149
*558 TAP_TAPCELL_ROW_26_150
*559 TAP_TAPCELL_ROW_26_151
*560 TAP_TAPCELL_ROW_26_152
*561 TAP_TAPCELL_ROW_26_153
*562 TAP_TAPCELL_ROW_27_154
*563 TAP_TAPCELL_ROW_27_155
*564 TAP_TAPCELL_ROW_27_156
*565 TAP_TAPCELL_ROW_27_157
*566 TAP_TAPCELL_ROW_27_158
*567 TAP_TAPCELL_ROW_28_159
*568 TAP_TAPCELL_ROW_28_160
*569 TAP_TAPCELL_ROW_28_161
*570 TAP_TAPCELL_ROW_28_162
*571 TAP_TAPCELL_ROW_28_163
*572 TAP_TAPCELL_ROW_28_164
*573 TAP_TAPCELL_ROW_29_165
*574 TAP_TAPCELL_ROW_29_166
*575 TAP_TAPCELL_ROW_29_167
*576 TAP_TAPCELL_ROW_29_168
*577 TAP_TAPCELL_ROW_29_169
*578 TAP_TAPCELL_ROW_30_170
*579 TAP_TAPCELL_ROW_30_171
*580 TAP_TAPCELL_ROW_30_172
*581 TAP_TAPCELL_ROW_30_173
*582 TAP_TAPCELL_ROW_30_174
*583 TAP_TAPCELL_ROW_30_175
*584 TAP_TAPCELL_ROW_31_176
*585 TAP_TAPCELL_ROW_31_177
*586 TAP_TAPCELL_ROW_31_178
*587 TAP_TAPCELL_ROW_31_179
*588 TAP_TAPCELL_ROW_31_180
*589 TAP_TAPCELL_ROW_32_181
*590 TAP_TAPCELL_ROW_32_182
*591 TAP_TAPCELL_ROW_32_183
*592 TAP_TAPCELL_ROW_32_184
*593 TAP_TAPCELL_ROW_32_185
*594 TAP_TAPCELL_ROW_32_186
*595 TAP_TAPCELL_ROW_33_187
*596 TAP_TAPCELL_ROW_33_188
*597 TAP_TAPCELL_ROW_33_189
*598 TAP_TAPCELL_ROW_33_190
*599 TAP_TAPCELL_ROW_33_191
*600 TAP_TAPCELL_ROW_34_192
*601 TAP_TAPCELL_ROW_34_193
*602 TAP_TAPCELL_ROW_34_194
*603 TAP_TAPCELL_ROW_34_195
*604 TAP_TAPCELL_ROW_34_196
*605 TAP_TAPCELL_ROW_34_197
*606 TAP_TAPCELL_ROW_35_198
*607 TAP_TAPCELL_ROW_35_199
*608 TAP_TAPCELL_ROW_35_200
*609 TAP_TAPCELL_ROW_35_201
*610 TAP_TAPCELL_ROW_35_202
*611 TAP_TAPCELL_ROW_36_203
*612 TAP_TAPCELL_ROW_36_204
*613 TAP_TAPCELL_ROW_36_205
*614 TAP_TAPCELL_ROW_36_206
*615 TAP_TAPCELL_ROW_36_207
*616 TAP_TAPCELL_ROW_36_208
*617 TAP_TAPCELL_ROW_37_209
*618 TAP_TAPCELL_ROW_37_210
*619 TAP_TAPCELL_ROW_37_211
*620 TAP_TAPCELL_ROW_37_212
*621 TAP_TAPCELL_ROW_37_213
*622 TAP_TAPCELL_ROW_38_214
*623 TAP_TAPCELL_ROW_38_215
*624 TAP_TAPCELL_ROW_38_216
*625 TAP_TAPCELL_ROW_38_217
*626 TAP_TAPCELL_ROW_38_218
*627 TAP_TAPCELL_ROW_38_219
*628 TAP_TAPCELL_ROW_39_220
*629 TAP_TAPCELL_ROW_39_221
*630 TAP_TAPCELL_ROW_39_222
*631 TAP_TAPCELL_ROW_39_223
*632 TAP_TAPCELL_ROW_39_224
*633 TAP_TAPCELL_ROW_40_225
*634 TAP_TAPCELL_ROW_40_226
*635 TAP_TAPCELL_ROW_40_227
*636 TAP_TAPCELL_ROW_40_228
*637 TAP_TAPCELL_ROW_40_229
*638 TAP_TAPCELL_ROW_40_230
*639 TAP_TAPCELL_ROW_41_231
*640 TAP_TAPCELL_ROW_41_232
*641 TAP_TAPCELL_ROW_41_233
*642 TAP_TAPCELL_ROW_41_234
*643 TAP_TAPCELL_ROW_41_235
*644 TAP_TAPCELL_ROW_42_236
*645 TAP_TAPCELL_ROW_42_237
*646 TAP_TAPCELL_ROW_42_238
*647 TAP_TAPCELL_ROW_42_239
*648 TAP_TAPCELL_ROW_42_240
*649 TAP_TAPCELL_ROW_42_241
*650 TAP_TAPCELL_ROW_43_242
*651 TAP_TAPCELL_ROW_43_243
*652 TAP_TAPCELL_ROW_43_244
*653 TAP_TAPCELL_ROW_43_245
*654 TAP_TAPCELL_ROW_43_246
*655 TAP_TAPCELL_ROW_44_247
*656 TAP_TAPCELL_ROW_44_248
*657 TAP_TAPCELL_ROW_44_249
*658 TAP_TAPCELL_ROW_44_250
*659 TAP_TAPCELL_ROW_44_251
*660 TAP_TAPCELL_ROW_44_252
*661 TAP_TAPCELL_ROW_45_253
*662 TAP_TAPCELL_ROW_45_254
*663 TAP_TAPCELL_ROW_45_255
*664 TAP_TAPCELL_ROW_45_256
*665 TAP_TAPCELL_ROW_45_257
*666 TAP_TAPCELL_ROW_46_258
*667 TAP_TAPCELL_ROW_46_259
*668 TAP_TAPCELL_ROW_46_260
*669 TAP_TAPCELL_ROW_46_261
*670 TAP_TAPCELL_ROW_46_262
*671 TAP_TAPCELL_ROW_46_263
*672 TAP_TAPCELL_ROW_47_264
*673 TAP_TAPCELL_ROW_47_265
*674 TAP_TAPCELL_ROW_47_266
*675 TAP_TAPCELL_ROW_47_267
*676 TAP_TAPCELL_ROW_47_268
*677 TAP_TAPCELL_ROW_48_269
*678 TAP_TAPCELL_ROW_48_270
*679 TAP_TAPCELL_ROW_48_271
*680 TAP_TAPCELL_ROW_48_272
*681 TAP_TAPCELL_ROW_48_273
*682 TAP_TAPCELL_ROW_48_274
*683 TAP_TAPCELL_ROW_49_275
*684 TAP_TAPCELL_ROW_49_276
*685 TAP_TAPCELL_ROW_49_277
*686 TAP_TAPCELL_ROW_49_278
*687 TAP_TAPCELL_ROW_49_279
*688 TAP_TAPCELL_ROW_50_280
*689 TAP_TAPCELL_ROW_50_281
*690 TAP_TAPCELL_ROW_50_282
*691 TAP_TAPCELL_ROW_50_283
*692 TAP_TAPCELL_ROW_50_284
*693 TAP_TAPCELL_ROW_50_285
*694 TAP_TAPCELL_ROW_51_286
*695 TAP_TAPCELL_ROW_51_287
*696 TAP_TAPCELL_ROW_51_288
*697 TAP_TAPCELL_ROW_51_289
*698 TAP_TAPCELL_ROW_51_290
*699 TAP_TAPCELL_ROW_52_291
*700 TAP_TAPCELL_ROW_52_292
*701 TAP_TAPCELL_ROW_52_293
*702 TAP_TAPCELL_ROW_52_294
*703 TAP_TAPCELL_ROW_52_295
*704 TAP_TAPCELL_ROW_52_296
*705 TAP_TAPCELL_ROW_53_297
*706 TAP_TAPCELL_ROW_53_298
*707 TAP_TAPCELL_ROW_53_299
*708 TAP_TAPCELL_ROW_53_300
*709 TAP_TAPCELL_ROW_53_301
*710 TAP_TAPCELL_ROW_54_302
*711 TAP_TAPCELL_ROW_54_303
*712 TAP_TAPCELL_ROW_54_304
*713 TAP_TAPCELL_ROW_54_305
*714 TAP_TAPCELL_ROW_54_306
*715 TAP_TAPCELL_ROW_54_307
*716 TAP_TAPCELL_ROW_55_308
*717 TAP_TAPCELL_ROW_55_309
*718 TAP_TAPCELL_ROW_55_310
*719 TAP_TAPCELL_ROW_55_311
*720 TAP_TAPCELL_ROW_55_312
*721 TAP_TAPCELL_ROW_56_313
*722 TAP_TAPCELL_ROW_56_314
*723 TAP_TAPCELL_ROW_56_315
*724 TAP_TAPCELL_ROW_56_316
*725 TAP_TAPCELL_ROW_56_317
*726 TAP_TAPCELL_ROW_56_318
*727 TAP_TAPCELL_ROW_56_319
*728 TAP_TAPCELL_ROW_56_320
*729 TAP_TAPCELL_ROW_56_321
*730 TAP_TAPCELL_ROW_56_322
*731 TAP_TAPCELL_ROW_56_323
*732 output20
*733 output21
*734 output22
*735 place23
*736 place24
*737 place25
*738 place26
*739 FILLER_0_0
*740 FILLER_0_8
*741 FILLER_0_16
*742 FILLER_0_24
*743 FILLER_0_28
*744 FILLER_0_31
*745 FILLER_0_39
*746 FILLER_0_47
*747 FILLER_0_55
*748 FILLER_0_59
*749 FILLER_0_61
*750 FILLER_0_69
*751 FILLER_0_77
*752 FILLER_0_85
*753 FILLER_0_89
*754 FILLER_0_91
*755 FILLER_0_99
*756 FILLER_0_107
*757 FILLER_0_115
*758 FILLER_0_119
*759 FILLER_0_121
*760 FILLER_0_129
*761 FILLER_0_137
*762 FILLER_0_145
*763 FILLER_0_149
*764 FILLER_0_151
*765 FILLER_0_159
*766 FILLER_0_167
*767 FILLER_0_175
*768 FILLER_0_179
*769 FILLER_0_181
*770 FILLER_0_185
*771 FILLER_0_195
*772 FILLER_0_203
*773 FILLER_0_207
*774 FILLER_0_209
*775 FILLER_0_211
*776 FILLER_0_219
*777 FILLER_0_227
*778 FILLER_0_235
*779 FILLER_0_239
*780 FILLER_0_241
*781 FILLER_0_249
*782 FILLER_0_257
*783 FILLER_0_265
*784 FILLER_0_269
*785 FILLER_0_271
*786 FILLER_0_279
*787 FILLER_0_287
*788 FILLER_0_295
*789 FILLER_0_299
*790 FILLER_0_301
*791 FILLER_0_309
*792 FILLER_0_317
*793 FILLER_0_325
*794 FILLER_0_329
*795 FILLER_0_331
*796 FILLER_0_339
*797 FILLER_1_0
*798 FILLER_1_8
*799 FILLER_1_16
*800 FILLER_1_24
*801 FILLER_1_32
*802 FILLER_1_40
*803 FILLER_1_48
*804 FILLER_1_56
*805 FILLER_1_61
*806 FILLER_1_69
*807 FILLER_1_77
*808 FILLER_1_85
*809 FILLER_1_93
*810 FILLER_1_101
*811 FILLER_1_109
*812 FILLER_1_117
*813 FILLER_1_119
*814 FILLER_1_121
*815 FILLER_1_129
*816 FILLER_1_137
*817 FILLER_1_145
*818 FILLER_1_153
*819 FILLER_1_161
*820 FILLER_1_169
*821 FILLER_1_177
*822 FILLER_1_179
*823 FILLER_1_181
*824 FILLER_1_189
*825 FILLER_1_197
*826 FILLER_1_205
*827 FILLER_1_213
*828 FILLER_1_221
*829 FILLER_1_229
*830 FILLER_1_237
*831 FILLER_1_239
*832 FILLER_1_241
*833 FILLER_1_249
*834 FILLER_1_257
*835 FILLER_1_265
*836 FILLER_1_273
*837 FILLER_1_281
*838 FILLER_1_289
*839 FILLER_1_297
*840 FILLER_1_299
*841 FILLER_1_301
*842 FILLER_1_309
*843 FILLER_1_317
*844 FILLER_1_325
*845 FILLER_1_333
*846 FILLER_1_337
*847 FILLER_1_339
*848 FILLER_2_0
*849 FILLER_2_8
*850 FILLER_2_16
*851 FILLER_2_24
*852 FILLER_2_28
*853 FILLER_2_31
*854 FILLER_2_39
*855 FILLER_2_47
*856 FILLER_2_55
*857 FILLER_2_63
*858 FILLER_2_71
*859 FILLER_2_79
*860 FILLER_2_87
*861 FILLER_2_89
*862 FILLER_2_91
*863 FILLER_2_99
*864 FILLER_2_107
*865 FILLER_2_115
*866 FILLER_2_123
*867 FILLER_2_131
*868 FILLER_2_139
*869 FILLER_2_147
*870 FILLER_2_149
*871 FILLER_2_151
*872 FILLER_2_159
*873 FILLER_2_167
*874 FILLER_2_175
*875 FILLER_2_183
*876 FILLER_2_191
*877 FILLER_2_199
*878 FILLER_2_207
*879 FILLER_2_209
*880 FILLER_2_211
*881 FILLER_2_219
*882 FILLER_2_227
*883 FILLER_2_235
*884 FILLER_2_243
*885 FILLER_2_251
*886 FILLER_2_259
*887 FILLER_2_267
*888 FILLER_2_269
*889 FILLER_2_271
*890 FILLER_2_279
*891 FILLER_2_287
*892 FILLER_2_295
*893 FILLER_2_303
*894 FILLER_2_311
*895 FILLER_2_319
*896 FILLER_2_327
*897 FILLER_2_329
*898 FILLER_2_331
*899 FILLER_2_339
*900 FILLER_3_0
*901 FILLER_3_8
*902 FILLER_3_16
*903 FILLER_3_24
*904 FILLER_3_32
*905 FILLER_3_40
*906 FILLER_3_48
*907 FILLER_3_56
*908 FILLER_3_61
*909 FILLER_3_69
*910 FILLER_3_77
*911 FILLER_3_85
*912 FILLER_3_93
*913 FILLER_3_101
*914 FILLER_3_109
*915 FILLER_3_117
*916 FILLER_3_119
*917 FILLER_3_121
*918 FILLER_3_129
*919 FILLER_3_137
*920 FILLER_3_145
*921 FILLER_3_153
*922 FILLER_3_161
*923 FILLER_3_169
*924 FILLER_3_177
*925 FILLER_3_179
*926 FILLER_3_181
*927 FILLER_3_189
*928 FILLER_3_197
*929 FILLER_3_205
*930 FILLER_3_213
*931 FILLER_3_221
*932 FILLER_3_229
*933 FILLER_3_237
*934 FILLER_3_239
*935 FILLER_3_241
*936 FILLER_3_249
*937 FILLER_3_257
*938 FILLER_3_265
*939 FILLER_3_273
*940 FILLER_3_281
*941 FILLER_3_289
*942 FILLER_3_297
*943 FILLER_3_299
*944 FILLER_3_301
*945 FILLER_3_309
*946 FILLER_3_317
*947 FILLER_3_325
*948 FILLER_3_333
*949 FILLER_3_337
*950 FILLER_3_339
*951 FILLER_4_0
*952 FILLER_4_8
*953 FILLER_4_16
*954 FILLER_4_24
*955 FILLER_4_28
*956 FILLER_4_31
*957 FILLER_4_39
*958 FILLER_4_47
*959 FILLER_4_55
*960 FILLER_4_63
*961 FILLER_4_71
*962 FILLER_4_79
*963 FILLER_4_87
*964 FILLER_4_89
*965 FILLER_4_91
*966 FILLER_4_99
*967 FILLER_4_107
*968 FILLER_4_115
*969 FILLER_4_123
*970 FILLER_4_131
*971 FILLER_4_139
*972 FILLER_4_147
*973 FILLER_4_149
*974 FILLER_4_151
*975 FILLER_4_159
*976 FILLER_4_167
*977 FILLER_4_175
*978 FILLER_4_183
*979 FILLER_4_191
*980 FILLER_4_199
*981 FILLER_4_207
*982 FILLER_4_209
*983 FILLER_4_211
*984 FILLER_4_219
*985 FILLER_4_227
*986 FILLER_4_235
*987 FILLER_4_243
*988 FILLER_4_251
*989 FILLER_4_259
*990 FILLER_4_267
*991 FILLER_4_269
*992 FILLER_4_271
*993 FILLER_4_279
*994 FILLER_4_287
*995 FILLER_4_295
*996 FILLER_4_303
*997 FILLER_4_311
*998 FILLER_4_319
*999 FILLER_4_327
*1000 FILLER_4_329
*1001 FILLER_4_331
*1002 FILLER_4_339
*1003 FILLER_5_0
*1004 FILLER_5_8
*1005 FILLER_5_16
*1006 FILLER_5_24
*1007 FILLER_5_32
*1008 FILLER_5_40
*1009 FILLER_5_48
*1010 FILLER_5_56
*1011 FILLER_5_61
*1012 FILLER_5_69
*1013 FILLER_5_77
*1014 FILLER_5_85
*1015 FILLER_5_93
*1016 FILLER_5_101
*1017 FILLER_5_109
*1018 FILLER_5_117
*1019 FILLER_5_119
*1020 FILLER_5_121
*1021 FILLER_5_129
*1022 FILLER_5_137
*1023 FILLER_5_145
*1024 FILLER_5_153
*1025 FILLER_5_161
*1026 FILLER_5_169
*1027 FILLER_5_177
*1028 FILLER_5_179
*1029 FILLER_5_181
*1030 FILLER_5_189
*1031 FILLER_5_197
*1032 FILLER_5_205
*1033 FILLER_5_213
*1034 FILLER_5_221
*1035 FILLER_5_229
*1036 FILLER_5_237
*1037 FILLER_5_239
*1038 FILLER_5_241
*1039 FILLER_5_249
*1040 FILLER_5_257
*1041 FILLER_5_265
*1042 FILLER_5_273
*1043 FILLER_5_281
*1044 FILLER_5_289
*1045 FILLER_5_297
*1046 FILLER_5_299
*1047 FILLER_5_301
*1048 FILLER_5_309
*1049 FILLER_5_317
*1050 FILLER_5_325
*1051 FILLER_5_333
*1052 FILLER_5_337
*1053 FILLER_5_339
*1054 FILLER_6_0
*1055 FILLER_6_8
*1056 FILLER_6_16
*1057 FILLER_6_24
*1058 FILLER_6_28
*1059 FILLER_6_31
*1060 FILLER_6_39
*1061 FILLER_6_47
*1062 FILLER_6_55
*1063 FILLER_6_63
*1064 FILLER_6_71
*1065 FILLER_6_79
*1066 FILLER_6_87
*1067 FILLER_6_89
*1068 FILLER_6_91
*1069 FILLER_6_99
*1070 FILLER_6_107
*1071 FILLER_6_115
*1072 FILLER_6_123
*1073 FILLER_6_131
*1074 FILLER_6_139
*1075 FILLER_6_147
*1076 FILLER_6_149
*1077 FILLER_6_151
*1078 FILLER_6_159
*1079 FILLER_6_167
*1080 FILLER_6_175
*1081 FILLER_6_183
*1082 FILLER_6_191
*1083 FILLER_6_199
*1084 FILLER_6_207
*1085 FILLER_6_209
*1086 FILLER_6_211
*1087 FILLER_6_219
*1088 FILLER_6_227
*1089 FILLER_6_235
*1090 FILLER_6_243
*1091 FILLER_6_251
*1092 FILLER_6_259
*1093 FILLER_6_267
*1094 FILLER_6_269
*1095 FILLER_6_271
*1096 FILLER_6_279
*1097 FILLER_6_287
*1098 FILLER_6_295
*1099 FILLER_6_303
*1100 FILLER_6_311
*1101 FILLER_6_319
*1102 FILLER_6_327
*1103 FILLER_6_329
*1104 FILLER_6_331
*1105 FILLER_6_339
*1106 FILLER_7_0
*1107 FILLER_7_8
*1108 FILLER_7_16
*1109 FILLER_7_24
*1110 FILLER_7_32
*1111 FILLER_7_40
*1112 FILLER_7_48
*1113 FILLER_7_56
*1114 FILLER_7_61
*1115 FILLER_7_69
*1116 FILLER_7_77
*1117 FILLER_7_85
*1118 FILLER_7_93
*1119 FILLER_7_101
*1120 FILLER_7_109
*1121 FILLER_7_117
*1122 FILLER_7_119
*1123 FILLER_7_121
*1124 FILLER_7_129
*1125 FILLER_7_137
*1126 FILLER_7_145
*1127 FILLER_7_153
*1128 FILLER_7_161
*1129 FILLER_7_169
*1130 FILLER_7_177
*1131 FILLER_7_179
*1132 FILLER_7_181
*1133 FILLER_7_189
*1134 FILLER_7_197
*1135 FILLER_7_205
*1136 FILLER_7_213
*1137 FILLER_7_221
*1138 FILLER_7_229
*1139 FILLER_7_237
*1140 FILLER_7_239
*1141 FILLER_7_241
*1142 FILLER_7_249
*1143 FILLER_7_257
*1144 FILLER_7_265
*1145 FILLER_7_273
*1146 FILLER_7_281
*1147 FILLER_7_289
*1148 FILLER_7_297
*1149 FILLER_7_299
*1150 FILLER_7_301
*1151 FILLER_7_309
*1152 FILLER_7_317
*1153 FILLER_7_325
*1154 FILLER_7_333
*1155 FILLER_7_337
*1156 FILLER_7_339
*1157 FILLER_8_0
*1158 FILLER_8_8
*1159 FILLER_8_16
*1160 FILLER_8_24
*1161 FILLER_8_28
*1162 FILLER_8_31
*1163 FILLER_8_39
*1164 FILLER_8_47
*1165 FILLER_8_55
*1166 FILLER_8_63
*1167 FILLER_8_71
*1168 FILLER_8_79
*1169 FILLER_8_87
*1170 FILLER_8_89
*1171 FILLER_8_91
*1172 FILLER_8_99
*1173 FILLER_8_107
*1174 FILLER_8_115
*1175 FILLER_8_123
*1176 FILLER_8_131
*1177 FILLER_8_139
*1178 FILLER_8_147
*1179 FILLER_8_149
*1180 FILLER_8_151
*1181 FILLER_8_159
*1182 FILLER_8_167
*1183 FILLER_8_175
*1184 FILLER_8_183
*1185 FILLER_8_191
*1186 FILLER_8_199
*1187 FILLER_8_207
*1188 FILLER_8_209
*1189 FILLER_8_211
*1190 FILLER_8_219
*1191 FILLER_8_227
*1192 FILLER_8_235
*1193 FILLER_8_243
*1194 FILLER_8_251
*1195 FILLER_8_259
*1196 FILLER_8_267
*1197 FILLER_8_269
*1198 FILLER_8_271
*1199 FILLER_8_279
*1200 FILLER_8_287
*1201 FILLER_8_295
*1202 FILLER_8_303
*1203 FILLER_8_311
*1204 FILLER_8_319
*1205 FILLER_8_327
*1206 FILLER_8_329
*1207 FILLER_8_331
*1208 FILLER_8_339
*1209 FILLER_9_0
*1210 FILLER_9_8
*1211 FILLER_9_16
*1212 FILLER_9_24
*1213 FILLER_9_32
*1214 FILLER_9_40
*1215 FILLER_9_48
*1216 FILLER_9_56
*1217 FILLER_9_61
*1218 FILLER_9_69
*1219 FILLER_9_77
*1220 FILLER_9_85
*1221 FILLER_9_93
*1222 FILLER_9_101
*1223 FILLER_9_109
*1224 FILLER_9_117
*1225 FILLER_9_119
*1226 FILLER_9_121
*1227 FILLER_9_129
*1228 FILLER_9_137
*1229 FILLER_9_145
*1230 FILLER_9_153
*1231 FILLER_9_161
*1232 FILLER_9_169
*1233 FILLER_9_177
*1234 FILLER_9_179
*1235 FILLER_9_181
*1236 FILLER_9_189
*1237 FILLER_9_197
*1238 FILLER_9_205
*1239 FILLER_9_213
*1240 FILLER_9_221
*1241 FILLER_9_229
*1242 FILLER_9_237
*1243 FILLER_9_239
*1244 FILLER_9_241
*1245 FILLER_9_249
*1246 FILLER_9_257
*1247 FILLER_9_265
*1248 FILLER_9_273
*1249 FILLER_9_281
*1250 FILLER_9_289
*1251 FILLER_9_297
*1252 FILLER_9_299
*1253 FILLER_9_301
*1254 FILLER_9_309
*1255 FILLER_9_317
*1256 FILLER_9_325
*1257 FILLER_9_333
*1258 FILLER_9_337
*1259 FILLER_9_339
*1260 FILLER_10_0
*1261 FILLER_10_8
*1262 FILLER_10_16
*1263 FILLER_10_24
*1264 FILLER_10_28
*1265 FILLER_10_31
*1266 FILLER_10_39
*1267 FILLER_10_47
*1268 FILLER_10_55
*1269 FILLER_10_63
*1270 FILLER_10_71
*1271 FILLER_10_79
*1272 FILLER_10_87
*1273 FILLER_10_89
*1274 FILLER_10_91
*1275 FILLER_10_99
*1276 FILLER_10_107
*1277 FILLER_10_115
*1278 FILLER_10_123
*1279 FILLER_10_131
*1280 FILLER_10_139
*1281 FILLER_10_147
*1282 FILLER_10_149
*1283 FILLER_10_151
*1284 FILLER_10_159
*1285 FILLER_10_167
*1286 FILLER_10_175
*1287 FILLER_10_183
*1288 FILLER_10_191
*1289 FILLER_10_199
*1290 FILLER_10_207
*1291 FILLER_10_209
*1292 FILLER_10_211
*1293 FILLER_10_219
*1294 FILLER_10_227
*1295 FILLER_10_235
*1296 FILLER_10_243
*1297 FILLER_10_251
*1298 FILLER_10_259
*1299 FILLER_10_267
*1300 FILLER_10_269
*1301 FILLER_10_271
*1302 FILLER_10_279
*1303 FILLER_10_287
*1304 FILLER_10_295
*1305 FILLER_10_303
*1306 FILLER_10_311
*1307 FILLER_10_319
*1308 FILLER_10_327
*1309 FILLER_10_329
*1310 FILLER_10_331
*1311 FILLER_10_339
*1312 FILLER_11_0
*1313 FILLER_11_8
*1314 FILLER_11_16
*1315 FILLER_11_24
*1316 FILLER_11_32
*1317 FILLER_11_40
*1318 FILLER_11_48
*1319 FILLER_11_56
*1320 FILLER_11_61
*1321 FILLER_11_69
*1322 FILLER_11_77
*1323 FILLER_11_85
*1324 FILLER_11_93
*1325 FILLER_11_101
*1326 FILLER_11_109
*1327 FILLER_11_117
*1328 FILLER_11_119
*1329 FILLER_11_121
*1330 FILLER_11_129
*1331 FILLER_11_137
*1332 FILLER_11_145
*1333 FILLER_11_153
*1334 FILLER_11_161
*1335 FILLER_11_169
*1336 FILLER_11_177
*1337 FILLER_11_179
*1338 FILLER_11_181
*1339 FILLER_11_189
*1340 FILLER_11_197
*1341 FILLER_11_205
*1342 FILLER_11_213
*1343 FILLER_11_221
*1344 FILLER_11_229
*1345 FILLER_11_237
*1346 FILLER_11_239
*1347 FILLER_11_241
*1348 FILLER_11_249
*1349 FILLER_11_257
*1350 FILLER_11_265
*1351 FILLER_11_273
*1352 FILLER_11_281
*1353 FILLER_11_289
*1354 FILLER_11_297
*1355 FILLER_11_299
*1356 FILLER_11_301
*1357 FILLER_11_309
*1358 FILLER_11_317
*1359 FILLER_11_325
*1360 FILLER_11_333
*1361 FILLER_11_337
*1362 FILLER_11_339
*1363 FILLER_12_0
*1364 FILLER_12_8
*1365 FILLER_12_16
*1366 FILLER_12_24
*1367 FILLER_12_28
*1368 FILLER_12_31
*1369 FILLER_12_39
*1370 FILLER_12_47
*1371 FILLER_12_55
*1372 FILLER_12_63
*1373 FILLER_12_71
*1374 FILLER_12_79
*1375 FILLER_12_87
*1376 FILLER_12_89
*1377 FILLER_12_91
*1378 FILLER_12_99
*1379 FILLER_12_107
*1380 FILLER_12_115
*1381 FILLER_12_123
*1382 FILLER_12_131
*1383 FILLER_12_139
*1384 FILLER_12_147
*1385 FILLER_12_149
*1386 FILLER_12_151
*1387 FILLER_12_159
*1388 FILLER_12_167
*1389 FILLER_12_175
*1390 FILLER_12_183
*1391 FILLER_12_191
*1392 FILLER_12_199
*1393 FILLER_12_207
*1394 FILLER_12_209
*1395 FILLER_12_211
*1396 FILLER_12_219
*1397 FILLER_12_227
*1398 FILLER_12_235
*1399 FILLER_12_243
*1400 FILLER_12_251
*1401 FILLER_12_259
*1402 FILLER_12_267
*1403 FILLER_12_269
*1404 FILLER_12_271
*1405 FILLER_12_279
*1406 FILLER_12_287
*1407 FILLER_12_295
*1408 FILLER_12_303
*1409 FILLER_12_311
*1410 FILLER_12_319
*1411 FILLER_12_327
*1412 FILLER_12_329
*1413 FILLER_12_331
*1414 FILLER_12_339
*1415 FILLER_13_0
*1416 FILLER_13_8
*1417 FILLER_13_16
*1418 FILLER_13_24
*1419 FILLER_13_32
*1420 FILLER_13_40
*1421 FILLER_13_48
*1422 FILLER_13_56
*1423 FILLER_13_61
*1424 FILLER_13_69
*1425 FILLER_13_77
*1426 FILLER_13_85
*1427 FILLER_13_93
*1428 FILLER_13_101
*1429 FILLER_13_109
*1430 FILLER_13_117
*1431 FILLER_13_119
*1432 FILLER_13_121
*1433 FILLER_13_129
*1434 FILLER_13_137
*1435 FILLER_13_145
*1436 FILLER_13_153
*1437 FILLER_13_161
*1438 FILLER_13_169
*1439 FILLER_13_177
*1440 FILLER_13_179
*1441 FILLER_13_181
*1442 FILLER_13_189
*1443 FILLER_13_197
*1444 FILLER_13_205
*1445 FILLER_13_213
*1446 FILLER_13_221
*1447 FILLER_13_229
*1448 FILLER_13_237
*1449 FILLER_13_239
*1450 FILLER_13_241
*1451 FILLER_13_249
*1452 FILLER_13_257
*1453 FILLER_13_265
*1454 FILLER_13_273
*1455 FILLER_13_281
*1456 FILLER_13_289
*1457 FILLER_13_297
*1458 FILLER_13_299
*1459 FILLER_13_301
*1460 FILLER_13_309
*1461 FILLER_13_317
*1462 FILLER_13_325
*1463 FILLER_13_333
*1464 FILLER_13_337
*1465 FILLER_13_339
*1466 FILLER_14_0
*1467 FILLER_14_8
*1468 FILLER_14_16
*1469 FILLER_14_24
*1470 FILLER_14_28
*1471 FILLER_14_31
*1472 FILLER_14_39
*1473 FILLER_14_47
*1474 FILLER_14_55
*1475 FILLER_14_63
*1476 FILLER_14_71
*1477 FILLER_14_79
*1478 FILLER_14_87
*1479 FILLER_14_89
*1480 FILLER_14_91
*1481 FILLER_14_99
*1482 FILLER_14_107
*1483 FILLER_14_115
*1484 FILLER_14_123
*1485 FILLER_14_131
*1486 FILLER_14_139
*1487 FILLER_14_147
*1488 FILLER_14_149
*1489 FILLER_14_151
*1490 FILLER_14_159
*1491 FILLER_14_167
*1492 FILLER_14_175
*1493 FILLER_14_183
*1494 FILLER_14_191
*1495 FILLER_14_199
*1496 FILLER_14_207
*1497 FILLER_14_209
*1498 FILLER_14_211
*1499 FILLER_14_219
*1500 FILLER_14_227
*1501 FILLER_14_235
*1502 FILLER_14_243
*1503 FILLER_14_251
*1504 FILLER_14_259
*1505 FILLER_14_267
*1506 FILLER_14_269
*1507 FILLER_14_271
*1508 FILLER_14_279
*1509 FILLER_14_287
*1510 FILLER_14_295
*1511 FILLER_14_303
*1512 FILLER_14_311
*1513 FILLER_14_319
*1514 FILLER_14_327
*1515 FILLER_14_329
*1516 FILLER_14_331
*1517 FILLER_14_339
*1518 FILLER_15_0
*1519 FILLER_15_8
*1520 FILLER_15_16
*1521 FILLER_15_24
*1522 FILLER_15_32
*1523 FILLER_15_40
*1524 FILLER_15_48
*1525 FILLER_15_56
*1526 FILLER_15_61
*1527 FILLER_15_69
*1528 FILLER_15_77
*1529 FILLER_15_85
*1530 FILLER_15_93
*1531 FILLER_15_101
*1532 FILLER_15_109
*1533 FILLER_15_117
*1534 FILLER_15_119
*1535 FILLER_15_121
*1536 FILLER_15_129
*1537 FILLER_15_137
*1538 FILLER_15_145
*1539 FILLER_15_153
*1540 FILLER_15_161
*1541 FILLER_15_169
*1542 FILLER_15_177
*1543 FILLER_15_179
*1544 FILLER_15_181
*1545 FILLER_15_189
*1546 FILLER_15_197
*1547 FILLER_15_205
*1548 FILLER_15_213
*1549 FILLER_15_221
*1550 FILLER_15_229
*1551 FILLER_15_237
*1552 FILLER_15_239
*1553 FILLER_15_241
*1554 FILLER_15_249
*1555 FILLER_15_257
*1556 FILLER_15_265
*1557 FILLER_15_273
*1558 FILLER_15_281
*1559 FILLER_15_289
*1560 FILLER_15_297
*1561 FILLER_15_299
*1562 FILLER_15_301
*1563 FILLER_15_309
*1564 FILLER_15_317
*1565 FILLER_15_325
*1566 FILLER_15_333
*1567 FILLER_15_337
*1568 FILLER_15_339
*1569 FILLER_16_0
*1570 FILLER_16_8
*1571 FILLER_16_16
*1572 FILLER_16_24
*1573 FILLER_16_28
*1574 FILLER_16_31
*1575 FILLER_16_39
*1576 FILLER_16_47
*1577 FILLER_16_55
*1578 FILLER_16_63
*1579 FILLER_16_71
*1580 FILLER_16_79
*1581 FILLER_16_87
*1582 FILLER_16_89
*1583 FILLER_16_91
*1584 FILLER_16_99
*1585 FILLER_16_107
*1586 FILLER_16_115
*1587 FILLER_16_123
*1588 FILLER_16_131
*1589 FILLER_16_139
*1590 FILLER_16_147
*1591 FILLER_16_149
*1592 FILLER_16_151
*1593 FILLER_16_159
*1594 FILLER_16_167
*1595 FILLER_16_175
*1596 FILLER_16_183
*1597 FILLER_16_191
*1598 FILLER_16_199
*1599 FILLER_16_207
*1600 FILLER_16_209
*1601 FILLER_16_211
*1602 FILLER_16_219
*1603 FILLER_16_227
*1604 FILLER_16_235
*1605 FILLER_16_243
*1606 FILLER_16_251
*1607 FILLER_16_259
*1608 FILLER_16_267
*1609 FILLER_16_269