*SPEF "ieee 1481-1999"
*DESIGN "sn74169"
*DATE "08:02:47 Tuesday July 07, 2026"
*VENDOR "The OpenROAD Project"
*PROGRAM "OpenROAD"
*VERSION "26Q1-1392-g93cb34c5d4"
*DESIGN_FLOW "NAME_SCOPE LOCAL" "PIN_CAP NONE"
*DIVIDER /
*DELIMITER :
*BUS_DELIMITER []
*T_UNIT 1 NS
*C_UNIT 1 PF
*R_UNIT 1 OHM
*L_UNIT 1 HENRY

*NAME_MAP
*1 net1
*2 net2
*3 net3
*4 net4
*5 net5
*6 net6
*7 net7
*8 net8
*9 net10
*10 net11
*11 net12
*12 net13
*13 net14
*14 net9
*15 _00_
*16 _01_
*17 _02_
*18 _03_
*19 _04_
*20 _05_
*21 _06_
*22 _07_
*23 _08_
*24 _09_
*25 _10_
*26 _11_
*27 _12_
*28 _13_
*29 _14_
*30 _15_
*31 _16_
*32 _17_
*33 _18_
*34 _19_
*35 _20_
*36 _21_
*37 _22_
*38 _23_
*41 A[0]
*42 A[1]
*43 A[2]
*44 A[3]
*45 CLK
*46 ENPB
*47 ENTB
*48 LOADB
*49 U_DB
*50 Q[0]
*51 Q[1]
*52 Q[2]
*53 Q[3]
*54 RCOB
*55 Q\[0\]\$_DFFE_PP_
*56 Q\[1\]\$_DFFE_PP_
*57 Q\[2\]\$_DFFE_PP_
*58 Q\[3\]\$_DFFE_PP_
*59 _24_
*60 _25_
*61 _26_
*62 _27_
*63 _28_
*64 _29_
*65 _30_
*66 _31_
*67 _32_
*68 _33_
*69 _34_
*70 _35_
*71 _36_
*72 _37_
*73 _38_
*74 _39_
*75 _40_
*76 _41_
*77 _42_
*78 _43_
*79 _44_
*80 _45_
*81 TAP_TAPCELL_ROW_0_0
*82 TAP_TAPCELL_ROW_0_1
*83 TAP_TAPCELL_ROW_0_2
*84 TAP_TAPCELL_ROW_0_3
*85 TAP_TAPCELL_ROW_0_4
*86 TAP_TAPCELL_ROW_1_5
*87 TAP_TAPCELL_ROW_1_6
*88 TAP_TAPCELL_ROW_2_7
*89 TAP_TAPCELL_ROW_2_8
*90 TAP_TAPCELL_ROW_2_9
*91 TAP_TAPCELL_ROW_3_10
*92 TAP_TAPCELL_ROW_3_11
*93 TAP_TAPCELL_ROW_4_12
*94 TAP_TAPCELL_ROW_4_13
*95 TAP_TAPCELL_ROW_4_14
*96 TAP_TAPCELL_ROW_5_15
*97 TAP_TAPCELL_ROW_5_16
*98 TAP_TAPCELL_ROW_6_17
*99 TAP_TAPCELL_ROW_6_18
*100 TAP_TAPCELL_ROW_6_19
*101 TAP_TAPCELL_ROW_7_20
*102 TAP_TAPCELL_ROW_7_21
*103 TAP_TAPCELL_ROW_8_22
*104 TAP_TAPCELL_ROW_8_23
*105 TAP_TAPCELL_ROW_8_24
*106 TAP_TAPCELL_ROW_9_25
*107 TAP_TAPCELL_ROW_9_26
*108 TAP_TAPCELL_ROW_10_27
*109 TAP_TAPCELL_ROW_10_28
*110 TAP_TAPCELL_ROW_10_29
*111 TAP_TAPCELL_ROW_11_30
*112 TAP_TAPCELL_ROW_11_31
*113 TAP_TAPCELL_ROW_12_32
*114 TAP_TAPCELL_ROW_12_33
*115 TAP_TAPCELL_ROW_12_34
*116 TAP_TAPCELL_ROW_13_35
*117 TAP_TAPCELL_ROW_13_36
*118 TAP_TAPCELL_ROW_14_37
*119 TAP_TAPCELL_ROW_14_38
*120 TAP_TAPCELL_ROW_14_39
*121 TAP_TAPCELL_ROW_15_40
*122 TAP_TAPCELL_ROW_15_41
*123 TAP_TAPCELL_ROW_16_42
*124 TAP_TAPCELL_ROW_16_43
*125 TAP_TAPCELL_ROW_16_44
*126 TAP_TAPCELL_ROW_17_45
*127 TAP_TAPCELL_ROW_17_46
*128 TAP_TAPCELL_ROW_18_47
*129 TAP_TAPCELL_ROW_18_48
*130 TAP_TAPCELL_ROW_18_49
*131 TAP_TAPCELL_ROW_19_50
*132 TAP_TAPCELL_ROW_19_51
*133 TAP_TAPCELL_ROW_20_52
*134 TAP_TAPCELL_ROW_20_53
*135 TAP_TAPCELL_ROW_20_54
*136 TAP_TAPCELL_ROW_21_55
*137 TAP_TAPCELL_ROW_21_56
*138 TAP_TAPCELL_ROW_22_57
*139 TAP_TAPCELL_ROW_22_58
*140 TAP_TAPCELL_ROW_22_59
*141 TAP_TAPCELL_ROW_23_60
*142 TAP_TAPCELL_ROW_23_61
*143 TAP_TAPCELL_ROW_24_62
*144 TAP_TAPCELL_ROW_24_63
*145 TAP_TAPCELL_ROW_24_64
*146 TAP_TAPCELL_ROW_25_65
*147 TAP_TAPCELL_ROW_25_66
*148 TAP_TAPCELL_ROW_26_67
*149 TAP_TAPCELL_ROW_26_68
*150 TAP_TAPCELL_ROW_26_69
*151 TAP_TAPCELL_ROW_26_70
*152 TAP_TAPCELL_ROW_26_71
*153 input1
*154 input2
*155 input3
*156 input4
*157 input5
*158 input6
*159 input7
*160 input8
*161 input9
*162 output10
*163 output11
*164 output12
*165 output13
*166 output14
*167 FILLER_0_0
*168 FILLER_0_8
*169 FILLER_0_16
*170 FILLER_0_24
*171 FILLER_0_28
*172 FILLER_0_31
*173 FILLER_0_39
*174 FILLER_0_47
*175 FILLER_0_55
*176 FILLER_0_59
*177 FILLER_0_61
*178 FILLER_0_69
*179 FILLER_0_77
*180 FILLER_0_85
*181 FILLER_0_89
*182 FILLER_0_91
*183 FILLER_0_99
*184 FILLER_0_107
*185 FILLER_0_115
*186 FILLER_0_119
*187 FILLER_0_121
*188 FILLER_0_129
*189 FILLER_0_137
*190 FILLER_0_145
*191 FILLER_0_149
*192 FILLER_0_151
*193 FILLER_0_159
*194 FILLER_0_161
*195 FILLER_1_0
*196 FILLER_1_8
*197 FILLER_1_16
*198 FILLER_1_24
*199 FILLER_1_32
*200 FILLER_1_40
*201 FILLER_1_48
*202 FILLER_1_61
*203 FILLER_1_69
*204 FILLER_1_77
*205 FILLER_1_85
*206 FILLER_1_93
*207 FILLER_1_101
*208 FILLER_1_109
*209 FILLER_1_117
*210 FILLER_1_119
*211 FILLER_1_121
*212 FILLER_1_129
*213 FILLER_1_137
*214 FILLER_1_145
*215 FILLER_1_153
*216 FILLER_1_161
*217 FILLER_2_0
*218 FILLER_2_8
*219 FILLER_2_16
*220 FILLER_2_24
*221 FILLER_2_28
*222 FILLER_2_31
*223 FILLER_2_39
*224 FILLER_2_47
*225 FILLER_2_55
*226 FILLER_2_63
*227 FILLER_2_71
*228 FILLER_2_79
*229 FILLER_2_87
*230 FILLER_2_89
*231 FILLER_2_91
*232 FILLER_2_99
*233 FILLER_2_107
*234 FILLER_2_115
*235 FILLER_2_123
*236 FILLER_2_131
*237 FILLER_2_139
*238 FILLER_2_147
*239 FILLER_2_149
*240 FILLER_2_151
*241 FILLER_2_159
*242 FILLER_2_161
*243 FILLER_3_0
*244 FILLER_3_8
*245 FILLER_3_16
*246 FILLER_3_24
*247 FILLER_3_32
*248 FILLER_3_40
*249 FILLER_3_48
*250 FILLER_3_56
*251 FILLER_3_61
*252 FILLER_3_69
*253 FILLER_3_77
*254 FILLER_3_85
*255 FILLER_3_93
*256 FILLER_3_101
*257 FILLER_3_109
*258 FILLER_3_117
*259 FILLER_3_119
*260 FILLER_3_121
*261 FILLER_3_129
*262 FILLER_3_137
*263 FILLER_3_145
*264 FILLER_3_153
*265 FILLER_3_161
*266 FILLER_4_0
*267 FILLER_4_8
*268 FILLER_4_16
*269 FILLER_4_24
*270 FILLER_4_28
*271 FILLER_4_31
*272 FILLER_4_39
*273 FILLER_4_47
*274 FILLER_4_55
*275 FILLER_4_63
*276 FILLER_4_71
*277 FILLER_4_79
*278 FILLER_4_87
*279 FILLER_4_89
*280 FILLER_4_91
*281 FILLER_4_99
*282 FILLER_4_107
*283 FILLER_4_115
*284 FILLER_4_123
*285 FILLER_4_131
*286 FILLER_4_139
*287 FILLER_4_147
*288 FILLER_4_149
*289 FILLER_4_151
*290 FILLER_4_159
*291 FILLER_4_161
*292 FILLER_5_0
*293 FILLER_5_8
*294 FILLER_5_16
*295 FILLER_5_24
*296 FILLER_5_32
*297 FILLER_5_40
*298 FILLER_5_48
*299 FILLER_5_56
*300 FILLER_5_61
*301 FILLER_5_69
*302 FILLER_5_77
*303 FILLER_5_85
*304 FILLER_5_93
*305 FILLER_5_101
*306 FILLER_5_109
*307 FILLER_5_117
*308 FILLER_5_119
*309 FILLER_5_121
*310 FILLER_5_129
*311 FILLER_5_137
*312 FILLER_5_145
*313 FILLER_5_153
*314 FILLER_5_161
*315 FILLER_6_0
*316 FILLER_6_8
*317 FILLER_6_16
*318 FILLER_6_24
*319 FILLER_6_28
*320 FILLER_6_31
*321 FILLER_6_39
*322 FILLER_6_47
*323 FILLER_6_55
*324 FILLER_6_63
*325 FILLER_6_71
*326 FILLER_6_79
*327 FILLER_6_87
*328 FILLER_6_89
*329 FILLER_6_91
*330 FILLER_6_99
*331 FILLER_6_107
*332 FILLER_6_115
*333 FILLER_6_123
*334 FILLER_6_131
*335 FILLER_6_139
*336 FILLER_6_147
*337 FILLER_6_149
*338 FILLER_6_151
*339 FILLER_6_159
*340 FILLER_6_161
*341 FILLER_7_0
*342 FILLER_7_8
*343 FILLER_7_10
*344 FILLER_7_19
*345 FILLER_7_27
*346 FILLER_7_35
*347 FILLER_7_43
*348 FILLER_7_51
*349 FILLER_7_59
*350 FILLER_7_61
*351 FILLER_7_69
*352 FILLER_7_77
*353 FILLER_7_85
*354 FILLER_7_93
*355 FILLER_7_101
*356 FILLER_7_109
*357 FILLER_7_117
*358 FILLER_7_119
*359 FILLER_7_121
*360 FILLER_7_129
*361 FILLER_7_137
*362 FILLER_7_145
*363 FILLER_7_153
*364 FILLER_7_161
*365 FILLER_8_0
*366 FILLER_8_4
*367 FILLER_8_31
*368 FILLER_8_39
*369 FILLER_8_43
*370 FILLER_8_45
*371 FILLER_8_53
*372 FILLER_8_61
*373 FILLER_8_69
*374 FILLER_8_77
*375 FILLER_8_85
*376 FILLER_8_89
*377 FILLER_8_91
*378 FILLER_8_99
*379 FILLER_8_107
*380 FILLER_8_115
*381 FILLER_8_123
*382 FILLER_8_131
*383 FILLER_8_139
*384 FILLER_8_147
*385 FILLER_8_149
*386 FILLER_8_151
*387 FILLER_8_159
*388 FILLER_8_161
*389 FILLER_9_0
*390 FILLER_9_9
*391 FILLER_9_13
*392 FILLER_9_15
*393 FILLER_9_25
*394 FILLER_9_50
*395 FILLER_9_58
*396 FILLER_9_61
*397 FILLER_9_69
*398 FILLER_9_77
*399 FILLER_9_85
*400 FILLER_9_93
*401 FILLER_9_101
*402 FILLER_9_109
*403 FILLER_9_117
*404 FILLER_9_119
*405 FILLER_9_121
*406 FILLER_9_129
*407 FILLER_9_137
*408 FILLER_9_145
*409 FILLER_9_153
*410 FILLER_9_161
*411 FILLER_10_0
*412 FILLER_10_2
*413 FILLER_10_11
*414 FILLER_10_15
*415 FILLER_10_39
*416 FILLER_10_43
*417 FILLER_10_50
*418 FILLER_10_58
*419 FILLER_10_66
*420 FILLER_10_74
*421 FILLER_10_82
*422 FILLER_10_91
*423 FILLER_10_99
*424 FILLER_10_107
*425 FILLER_10_115
*426 FILLER_10_123
*427 FILLER_10_131
*428 FILLER_10_139
*429 FILLER_10_147
*430 FILLER_10_149
*431 FILLER_10_151
*432 FILLER_10_159
*433 FILLER_10_161
*434 FILLER_11_0
*435 FILLER_11_10
*436 FILLER_11_14
*437 FILLER_11_16
*438 FILLER_11_51
*439 FILLER_11_59
*440 FILLER_11_61
*441 FILLER_11_69
*442 FILLER_11_77
*443 FILLER_11_85
*444 FILLER_11_93
*445 FILLER_11_101
*446 FILLER_11_109
*447 FILLER_11_117
*448 FILLER_11_119
*449 FILLER_11_121
*450 FILLER_11_129
*451 FILLER_11_137
*452 FILLER_11_145
*453 FILLER_11_153
*454 FILLER_11_161
*455 FILLER_12_0
*456 FILLER_12_12
*457 FILLER_12_20
*458 FILLER_12_31
*459 FILLER_12_53
*460 FILLER_12_61
*461 FILLER_12_69
*462 FILLER_12_77
*463 FILLER_12_85
*464 FILLER_12_89
*465 FILLER_12_91
*466 FILLER_12_99
*467 FILLER_12_107
*468 FILLER_12_115
*469 FILLER_12_123
*470 FILLER_12_131
*471 FILLER_12_139
*472 FILLER_12_147
*473 FILLER_12_149
*474 FILLER_12_151
*475 FILLER_12_159
*476 FILLER_12_161
*477 FILLER_13_0
*478 FILLER_13_2
*479 FILLER_13_11
*480 FILLER_13_19
*481 FILLER_13_21
*482 FILLER_13_30
*483 FILLER_13_32
*484 FILLER_13_36
*485 FILLER_13_44
*486 FILLER_13_52
*487 FILLER_13_61
*488 FILLER_13_69
*489 FILLER_13_77
*490 FILLER_13_85
*491 FILLER_13_93
*492 FILLER_13_101
*493 FILLER_13_109
*494 FILLER_13_117
*495 FILLER_13_119
*496 FILLER_13_121
*497 FILLER_13_129
*498 FILLER_13_137
*499 FILLER_13_145
*500 FILLER_13_153
*501 FILLER_13_161
*502 FILLER_14_0
*503 FILLER_14_2
*504 FILLER_14_15
*505 FILLER_14_23
*506 FILLER_14_27
*507 FILLER_14_29
*508 FILLER_14_47
*509 FILLER_14_55
*510 FILLER_14_63
*511 FILLER_14_71
*512 FILLER_14_79
*513 FILLER_14_87
*514 FILLER_14_89
*515 FILLER_14_91
*516 FILLER_14_99
*517 FILLER_14_107
*518 FILLER_14_115
*519 FILLER_14_123
*520 FILLER_14_131
*521 FILLER_14_139
*522 FILLER_14_147
*523 FILLER_14_149
*524 FILLER_14_151
*525 FILLER_14_159
*526 FILLER_14_161
*527 FILLER_15_0
*528 FILLER_15_4
*529 FILLER_15_13
*530 FILLER_15_44
*531 FILLER_15_52
*532 FILLER_15_61
*533 FILLER_15_69
*534 FILLER_15_77
*535 FILLER_15_85
*536 FILLER_15_93
*537 FILLER_15_101
*538 FILLER_15_109
*539 FILLER_15_117
*540 FILLER_15_119
*541 FILLER_15_121
*542 FILLER_15_129
*543 FILLER_15_137
*544 FILLER_15_145
*545 FILLER_15_153
*546 FILLER_15_161
*547 FILLER_16_8
*548 FILLER_16_16
*549 FILLER_16_18
*550 FILLER_16_31
*551 FILLER_16_39
*552 FILLER_16_47
*553 FILLER_16_55
*554 FILLER_16_63
*555 FILLER_16_71
*556 FILLER_16_79
*557 FILLER_16_87
*558 FILLER_16_89
*559 FILLER_16_91
*560 FILLER_16_99
*561 FILLER_16_107
*562 FILLER_16_115
*563 FILLER_16_123
*564 FILLER_16_131
*565 FILLER_16_139
*566 FILLER_16_147
*567 FILLER_16_149
*568 FILLER_16_151
*569 FILLER_16_159
*570 FILLER_16_161
*571 FILLER_17_0
*572 FILLER_17_8
*573 FILLER_17_16
*574 FILLER_17_20
*575 FILLER_17_22
*576 FILLER_17_47
*577 FILLER_17_55
*578 FILLER_17_59
*579 FILLER_17_61
*580 FILLER_17_69
*581 FILLER_17_77
*582 FILLER_17_85
*583 FILLER_17_93
*584 FILLER_17_101
*585 FILLER_17_109
*586 FILLER_17_117
*587 FILLER_17_119
*588 FILLER_17_121
*589 FILLER_17_129
*590 FILLER_17_137
*591 FILLER_17_145
*592 FILLER_17_153
*593 FILLER_17_161
*594 FILLER_18_0
*595 FILLER_18_8
*596 FILLER_18_16
*597 FILLER_18_24
*598 FILLER_18_28
*599 FILLER_18_31
*600 FILLER_18_39
*601 FILLER_18_47
*602 FILLER_18_55
*603 FILLER_18_63
*604 FILLER_18_71
*605 FILLER_18_79
*606 FILLER_18_87
*607 FILLER_18_89
*608 FILLER_18_91
*609 FILLER_18_99
*610 FILLER_18_107
*611 FILLER_18_115
*612 FILLER_18_123
*613 FILLER_18_131
*614 FILLER_18_139
*615 FILLER_18_147
*616 FILLER_18_149
*617 FILLER_18_151
*618 FILLER_18_159
*619 FILLER_18_161
*620 FILLER_19_0
*621 FILLER_19_8
*622 FILLER_19_16
*623 FILLER_19_24
*624 FILLER_19_32
*625 FILLER_19_40
*626 FILLER_19_48
*627 FILLER_19_56
*628 FILLER_19_61
*629 FILLER_19_69
*630 FILLER_19_77
*631 FILLER_19_85
*632 FILLER_19_93
*633 FILLER_19_101
*634 FILLER_19_109
*635 FILLER_19_117
*636 FILLER_19_119
*637 FILLER_19_121
*638 FILLER_19_129
*639 FILLER_19_137
*640 FILLER_19_145
*641 FILLER_19_153
*642 FILLER_19_161
*643 FILLER_20_0
*644 FILLER_20_8
*645 FILLER_20_16
*646 FILLER_20_24
*647 FILLER_20_28
*648 FILLER_20_31
*649 FILLER_20_39
*650 FILLER_20_47
*651 FILLER_20_55
*652 FILLER_20_63
*653 FILLER_20_71
*654 FILLER_20_79
*655 FILLER_20_87
*656 FILLER_20_89
*657 FILLER_20_91
*658 FILLER_20_99
*659 FILLER_20_107
*660 FILLER_20_115
*661 FILLER_20_123
*662 FILLER_20_131
*663 FILLER_20_139
*664 FILLER_20_147
*665 FILLER_20_149
*666 FILLER_20_151
*667 FILLER_20_159
*668 FILLER_20_161
*669 FILLER_21_0
*670 FILLER_21_8
*671 FILLER_21_16
*672 FILLER_21_24
*673 FILLER_21_32
*674 FILLER_21_40
*675 FILLER_21_48
*676 FILLER_21_56
*677 FILLER_21_61
*678 FILLER_21_69
*679 FILLER_21_77
*680 FILLER_21_85
*681 FILLER_21_93
*682 FILLER_21_101
*683 FILLER_21_109
*684 FILLER_21_117
*685 FILLER_21_119
*686 FILLER_21_121
*687 FILLER_21_129
*688 FILLER_21_137
*689 FILLER_21_145
*690 FILLER_21_153
*691 FILLER_21_161
*692 FILLER_22_0
*693 FILLER_22_8
*694 FILLER_22_16
*695 FILLER_22_24
*696 FILLER_22_28
*697 FILLER_22_31
*698 FILLER_22_39
*699 FILLER_22_47
*700 FILLER_22_55
*701 FILLER_22_63
*702 FILLER_22_71
*703 FILLER_22_79
*704 FILLER_22_87
*705 FILLER_22_89
*706 FILLER_22_91
*707 FILLER_22_99
*708 FILLER_22_107
*709 FILLER_22_115
*710 FILLER_22_123
*711 FILLER_22_131
*712 FILLER_22_139
*713 FILLER_22_147
*714 FILLER_22_149
*715 FILLER_22_151
*716 FILLER_22_159
*717 FILLER_22_161
*718 FILLER_23_0
*719 FILLER_23_8
*720 FILLER_23_16
*721 FILLER_23_24
*722 FILLER_23_32
*723 FILLER_23_40
*724 FILLER_23_48
*725 FILLER_23_56
*726 FILLER_23_61
*727 FILLER_23_69
*728 FILLER_23_77
*729 FILLER_23_85
*730 FILLER_23_93
*731 FILLER_23_101
*732 FILLER_23_109
*733 FILLER_23_117
*734 FILLER_23_119
*735 FILLER_23_121
*736 FILLER_23_129
*737 FILLER_23_137
*738 FILLER_23_145
*739 FILLER_23_153
*740 FILLER_23_161
*741 FILLER_24_0
*742 FILLER_24_8
*743 FILLER_24_16
*744 FILLER_24_24
*745 FILLER_24_28
*746 FILLER_24_31
*747 FILLER_24_39
*748 FILLER_24_47
*749 FILLER_24_55
*750 FILLER_24_63
*751 FILLER_24_71
*752 FILLER_24_79
*753 FILLER_24_87
*754 FILLER_24_89
*755 FILLER_24_91
*756 FILLER_24_99
*757 FILLER_24_107
*758 FILLER_24_115
*759 FILLER_24_123
*760 FILLER_24_131
*761 FILLER_24_139
*762 FILLER_24_147
*763 FILLER_24_149
*764 FILLER_24_151
*765 FILLER_24_159
*766 FILLER_24_161
*767 FILLER_25_0
*768 FILLER_25_8
*769 FILLER_25_16
*770 FILLER_25_24
*771 FILLER_25_32
*772 FILLER_25_40
*773 FILLER_25_48
*774 FILLER_25_56
*775 FILLER_25_61
*776 FILLER_25_69
*777 FILLER_25_77
*778 FILLER_25_85
*779 FILLER_25_93
*780 FILLER_25_101
*781 FILLER_25_109
*782 FILLER_25_117
*783 FILLER_25_119
*784 FILLER_25_121
*785 FILLER_25_129
*786 FILLER_25_137
*787 FILLER_25_145
*788 FILLER_25_153
*789 FILLER_25_161
*790 FILLER_26_0
*791 FILLER_26_8
*792 FILLER_26_16
*793 FILLER_26_24
*794 FILLER_26_28
*795 FILLER_26_31
*796 FILLER_26_39
*797 FILLER_26_47
*798 FILLER_26_55
*799 FILLER_26_59
*800 FILLER_26_61
*801 FILLER_26_69
*802 FILLER_26_77
*803 FILLER_26_85
*804 FILLER_26_89
*805 FILLER_26_91
*806 FILLER_26_99
*807 FILLER_26_107
*808 FILLER_26_115
*809 FILLER_26_119
*810 FILLER_26_121
*811 FILLER_26_129
*812 FILLER_26_137
*813 FILLER_26_145
*814 FILLER_26_149
*815 FILLER_26_151
*816 FILLER_26_159
*817 FILLER_26_161

*PORTS
A[0] I
A[1] I
A[2] I
A[3] I
CLK I
ENPB I
ENTB I
LOADB I
Q[0] O
Q[1] O
Q[2] O
Q[3] O
RCOB O
U_DB I

*D_NET *1 0.000123167
*CONN
*I *61:B I *D sky130_fd_sc_hd__nand2_1
*I *153:X O *D sky130_fd_sc_hd__clkdlybuf4s50_1
*CAP
1 *61:B 3.71141e-05
2 *153:X 3.71141e-05
3 *61:B *156:A 4.89392e-05
*RES
1 *153:X *61:B 19.7763 
*END

*D_NET *2 0.00069983
*CONN
*I *63:A0 I *D sky130_fd_sc_hd__mux2_2
*I *154:X O *D sky130_fd_sc_hd__clkdlybuf4s50_1
*CAP
1 *63:A0 0.000344735
2 *154:X 0.000344735
3 *63:A0 *56:D 0
4 *63:A0 *63:S 1.03594e-05
*RES
1 *154:X *63:A0 34.7608 
*END

*D_NET *3 0.000129757
*CONN
*I *65:B I *D sky130_fd_sc_hd__nor2_1
*I *155:X O *D sky130_fd_sc_hd__clkdlybuf4s50_1
*CAP
1 *65:B 6.48783e-05
2 *155:X 6.48783e-05
*RES
1 *155:X *65:B 19.7763 
*END

*D_NET *4 0.000784016
*CONN
*I *72:A2 I *D sky130_fd_sc_hd__a211o_1
*I *156:X O *D sky130_fd_sc_hd__clkdlybuf4s50_1
*CAP
1 *72:A2 0.00011875
2 *156:X 0.00011875
3 *72:A2 *60:A 8.30351e-05
4 *72:A2 *72:A1 2.48363e-05
5 *72:A2 *27:20 0.000138204
6 *72:A2 *27:36 0.00030044
*RES
1 *156:X *72:A2 23.6826 
*END

*D_NET *5 0.00516878
*CONN
*I *58:CLK I *D sky130_fd_sc_hd__edfxtp_1
*I *55:CLK I *D sky130_fd_sc_hd__edfxtp_1
*I *57:CLK I *D sky130_fd_sc_hd__edfxtp_1
*I *56:CLK I *D sky130_fd_sc_hd__edfxtp_1
*I *157:X O *D sky130_fd_sc_hd__clkdlybuf4s50_1
*CAP
1 *58:CLK 0.000507566
2 *55:CLK 0
3 *57:CLK 4.10891e-05
4 *56:CLK 0.000570372
5 *157:X 9.84652e-05
6 *5:42 0.00070012
7 *5:12 0.00069001
8 *5:8 0.000369569
9 *56:CLK Q[0] 7.02493e-05
10 *56:CLK Q[1] 9.12416e-06
11 *56:CLK *56:D 1.13647e-05
12 *56:CLK *56:DE 0.000219357
13 *56:CLK *57:DE 6.08467e-05
14 *56:CLK *154:A 0
15 *56:CLK *155:A 0
16 *56:CLK *163:A 3.64303e-05
17 *57:CLK *57:DE 0.000217937
18 *57:CLK *163:A 5.02592e-05
19 *58:CLK *55:D 7.46666e-05
20 *58:CLK *156:A 0
21 *58:CLK *19:36 8.70662e-06
22 *58:CLK *27:20 4.69495e-06
23 *5:12 *56:DE 2.95757e-05
24 *5:12 *8:14 0.000240967
25 *5:12 *19:10 0.000220017
26 *5:42 *8:10 0.000112618
27 *5:42 *8:14 0.000337511
28 *5:42 *19:10 0.000254893
29 *5:42 *19:36 0.000232369
*RES
1 *157:X *5:8 15.0271 
2 *5:8 *5:12 8.82351 
3 *5:12 *56:CLK 32.7641 
4 *5:12 *57:CLK 11.6364 
5 *5:8 *5:42 9.79507 
6 *5:42 *55:CLK 13.7491 
7 *5:42 *58:CLK 25.7244 
*END

*D_NET *6 0.000377648
*CONN
*I *59:A1 I *D sky130_fd_sc_hd__o21ai_0
*I *158:X O *D sky130_fd_sc_hd__clkdlybuf4s50_1
*CAP
1 *59:A1 0.000111032
2 *158:X 0.000111032
3 *59:A1 *158:A 0
4 *59:A1 *161:A 3.14978e-05
5 *59:A1 *19:10 7.37686e-05
6 *59:A1 *19:36 5.0317e-05
*RES
1 *158:X *59:A1 30.4689 
*END

*D_NET *7 0.00012787
*CONN
*I *59:A2 I *D sky130_fd_sc_hd__o21ai_0
*I *159:X O *D sky130_fd_sc_hd__clkdlybuf4s50_1
*CAP
1 *59:A2 6.27287e-05
2 *159:X 6.27287e-05
3 *59:A2 *19:8 2.41274e-06
*RES
1 *159:X *59:A2 19.7763 
*END

*D_NET *8 0.00539449
*CONN
*I *60:A I *D sky130_fd_sc_hd__inv_1
*I *71:A I *D sky130_fd_sc_hd__and4_4
*I *59:B1 I *D sky130_fd_sc_hd__o21ai_0
*I *66:A1 I *D sky130_fd_sc_hd__a21oi_1
*I *63:S I *D sky130_fd_sc_hd__mux2_2
*I *65:A I *D sky130_fd_sc_hd__nor2_1
*I *160:X O *D sky130_fd_sc_hd__clkdlybuf4s50_1
*CAP
1 *60:A 0.000356177
2 *71:A 0.000358177
3 *59:B1 0
4 *66:A1 0
5 *63:S 0.000156176
6 *65:A 0
7 *160:X 0.000143337
8 *8:50 0.0009572
9 *8:41 0.000242847
10 *8:21 0.000278838
11 *8:14 0.000559822
12 *8:10 0.000580498
13 *60:A *58:DE 8.45537e-05
14 *60:A *62:A2 0
15 *60:A *27:20 9.03858e-06
16 *63:S *63:A1 6.46815e-05
17 *63:S *162:A 0.000114271
18 *71:A *69:A 0.000208621
19 *71:A *12:14 4.66492e-05
20 *71:A *33:10 6.08467e-05
21 *8:10 *19:36 1.82679e-05
22 *8:14 *56:DE 8.61473e-05
23 *8:14 *57:D 0
24 *8:21 *57:D 1.83992e-05
25 *8:21 *66:B1 0.000263038
26 *8:50 *19:8 2.41274e-06
27 *63:A0 *63:S 1.03594e-05
28 *72:A2 *60:A 8.30351e-05
29 *5:12 *8:14 0.000240967
30 *5:42 *8:10 0.000112618
31 *5:42 *8:14 0.000337511
*RES
1 *160:X *8:10 17.2744 
2 *8:10 *8:14 18.3743 
3 *8:14 *65:A 9.24915 
4 *8:14 *8:21 4.05102 
5 *8:21 *63:S 22.6049 
6 *8:21 *66:A1 9.24915 
7 *8:10 *8:41 4.5 
8 *8:41 *59:B1 9.24915 
9 *8:41 *8:50 10.2148 
10 *8:50 *71:A 22.6839 
11 *8:50 *60:A 23.9581 
*END

*D_NET *9 0.00791609
*CONN
*I *75:A I *D sky130_fd_sc_hd__nand4_1
*I *74:A I *D sky130_fd_sc_hd__nor4_1
*I *162:A I *D sky130_fd_sc_hd__clkdlybuf4s50_1
*I *67:A I *D sky130_fd_sc_hd__nand3_1
*I *78:A I *D sky130_fd_sc_hd__fa_1
*I *62:A2 I *D sky130_fd_sc_hd__o21ai_0
*I *55:Q O *D sky130_fd_sc_hd__edfxtp_1
*CAP
1 *75:A 0
2 *74:A 9.35179e-05
3 *162:A 0.00066449
4 *67:A 0
5 *78:A 0.0012416
6 *62:A2 0.00119855
7 *55:Q 0
8 *9:80 0.000264975
9 *9:37 0.000685539
10 *9:4 0.00147844
11 *62:A2 *55:D 0.000113968
12 *62:A2 *58:DE 7.87484e-05
13 *62:A2 *61:A 1.41976e-05
14 *62:A2 *62:B1 3.11105e-05
15 *62:A2 *156:A 1.07378e-05
16 *62:A2 *27:20 4.44823e-05
17 *74:A *75:B 9.29919e-05
18 *74:A *77:A2 6.1501e-05
19 *78:A *67:B 6.50727e-05
20 *78:A *67:C 0.000107496
21 *78:A *163:A 3.28711e-05
22 *78:A *164:A 1.65872e-05
23 *78:A *10:17 3.41004e-05
24 *78:A *12:27 0.000247325
25 *162:A *56:D 9.50664e-05
26 *162:A *63:A1 0.000183961
27 *9:37 *70:A1 0.000187086
28 *9:37 *70:A2 5.04829e-06
29 *9:37 *72:B1 8.21761e-06
30 *9:37 *12:27 0.000377195
31 *9:37 *20:12 0
32 *9:37 *26:21 6.08697e-06
33 *9:37 *31:10 0.000253346
34 *9:80 *63:A1 2.63403e-05
35 *9:80 *75:B 1.83992e-05
36 *9:80 *78:CIN 6.27718e-05
37 *60:A *62:A2 0
38 *63:S *162:A 0.000114271
*RES
1 *55:Q *9:4 9.24915 
2 *9:4 *62:A2 39.9569 
3 *9:4 *9:37 19.3072 
4 *9:37 *78:A 20.9036 
5 *9:37 *67:A 9.24915 
6 *78:A *162:A 27.1291 
7 *78:A *9:80 4.54534 
8 *9:80 *74:A 21.3269 
9 *9:80 *75:A 9.24915 
*END

*D_NET *10 0.0059636
*CONN
*I *163:A I *D sky130_fd_sc_hd__clkdlybuf4s50_1
*I *74:D I *D sky130_fd_sc_hd__nor4_1
*I *79:A I *D sky130_fd_sc_hd__ha_1
*I *75:D I *D sky130_fd_sc_hd__nand4_1
*I *78:B I *D sky130_fd_sc_hd__fa_1
*I *56:Q O *D sky130_fd_sc_hd__edfxtp_1
*CAP
1 *163:A 0.00133539
2 *74:D 0
3 *79:A 0.000241603
4 *75:D 7.30442e-05
5 *78:B 0
6 *56:Q 0.000269043
7 *10:23 0.000314647
8 *10:21 0.000258281
9 *10:17 0.00173182
10 *10:10 0.0004072
11 *75:D *75:C 9.76854e-05
12 *75:D *20:14 6.00124e-05
13 *79:A *68:A1 6.50727e-05
14 *79:A *68:B1 0
15 *79:A *75:B 2.37597e-05
16 *79:A *75:C 2.86829e-05
17 *79:A *11:29 3.37971e-05
18 *79:A *20:12 8.82418e-05
19 *79:A *20:14 9.01897e-05
20 *163:A *57:D 5.49029e-06
21 *163:A *57:DE 3.58804e-05
22 *10:21 *165:A 0.000258216
23 *10:21 *12:36 0.000391885
24 *56:CLK *163:A 3.64303e-05
25 *57:CLK *163:A 5.02592e-05
26 *78:A *163:A 3.28711e-05
27 *78:A *10:17 3.41004e-05
*RES
1 *56:Q *10:10 18.1063 
2 *10:10 *78:B 4.5 
3 *10:10 *10:17 3.07775 
4 *10:17 *10:21 11.8786 
5 *10:21 *10:23 4.5 
6 *10:23 *75:D 16.4116 
7 *10:23 *79:A 21.7028 
8 *10:21 *74:D 9.24915 
9 *10:17 *163:A 35.0324 
*END

*D_NET *11 0.00307976
*CONN
*I *80:A I *D sky130_fd_sc_hd__ha_1
*I *74:B I *D sky130_fd_sc_hd__nor4_1
*I *75:B I *D sky130_fd_sc_hd__nand4_1
*I *164:A I *D sky130_fd_sc_hd__clkdlybuf4s50_1
*I *57:Q O *D sky130_fd_sc_hd__edfxtp_1
*CAP
1 *80:A 0
2 *74:B 0
3 *75:B 0.000156109
4 *164:A 0.000738619
5 *57:Q 2.13025e-05
6 *11:29 0.000255686
7 *11:25 0.000302143
8 *11:6 0.000962487
9 *75:B *75:C 4.77834e-05
10 *164:A *67:B 0.00011818
11 *164:A *67:C 2.20567e-05
12 *164:A *12:27 3.58185e-05
13 *164:A *26:21 0.000123582
14 *11:25 *80:B 0.000110458
15 *74:A *75:B 9.29919e-05
16 *78:A *164:A 1.65872e-05
17 *79:A *75:B 2.37597e-05
18 *79:A *11:29 3.37971e-05
19 *9:80 *75:B 1.83992e-05
*RES
1 *57:Q *11:6 9.69524 
2 *11:6 *164:A 31.8055 
3 *11:6 *11:25 4.60562 
4 *11:25 *11:29 7.1625 
5 *11:29 *75:B 17.9655 
6 *11:29 *74:B 13.7491 
7 *11:25 *80:A 9.24915 
*END

*D_NET *12 0.00556014
*CONN
*I *74:C I *D sky130_fd_sc_hd__nor4_1
*I *75:C I *D sky130_fd_sc_hd__nand4_1
*I *165:A I *D sky130_fd_sc_hd__clkdlybuf4s50_1
*I *69:A I *D sky130_fd_sc_hd__xnor2_1
*I *58:Q O *D sky130_fd_sc_hd__edfxtp_1
*CAP
1 *74:C 4.41837e-05
2 *75:C 6.26687e-05
3 *165:A 6.3461e-05
4 *69:A 7.28279e-05
5 *58:Q 0.000522421
6 *12:36 0.000233264
7 *12:27 0.000583555
8 *12:14 0.000988931
9 *74:C *77:A2 2.08274e-05
10 *165:A *64:B 0.000305757
11 *12:14 *70:A2 1.94615e-05
12 *12:14 *70:B1 0.000144659
13 *12:14 *70:C1 0.000143027
14 *12:14 *72:C1 0.000103133
15 *12:14 *32:12 2.30636e-05
16 *12:14 *33:10 0.000168646
17 *12:27 Q[3] 5.9765e-05
18 *12:27 *69:B 4.40342e-05
19 *12:27 *26:21 0
20 *12:36 *64:B 0.000211546
21 *12:36 *77:A2 5.04829e-06
22 *71:A *69:A 0.000208621
23 *71:A *12:14 4.66492e-05
24 *75:B *75:C 4.77834e-05
25 *75:D *75:C 9.76854e-05
26 *78:A *12:27 0.000247325
27 *79:A *75:C 2.86829e-05
28 *164:A *12:27 3.58185e-05
29 *9:37 *12:27 0.000377195
30 *10:21 *165:A 0.000258216
31 *10:21 *12:36 0.000391885
*RES
1 *58:Q *12:14 32.6074 
2 *12:14 *69:A 11.6364 
3 *12:14 *12:27 22.4591 
4 *12:27 *165:A 12.7456 
5 *12:27 *12:36 5.16022 
6 *12:36 *75:C 20.4964 
7 *12:36 *74:C 10.5513 
*END

*D_NET *13 0.00216147
*CONN
*I *166:A I *D sky130_fd_sc_hd__clkdlybuf4s50_1
*I *77:Y O *D sky130_fd_sc_hd__a21oi_1
*CAP
1 *166:A 0
2 *77:Y 0.00102284
3 *13:12 0.00102284
4 *13:12 *77:A1 3.85195e-05
5 *13:12 *77:A2 7.72722e-05
*RES
1 *77:Y *13:12 43.9221 
2 *13:12 *166:A 9.24915 
*END

*D_NET *14 0.000587881
*CONN
*I *69:B I *D sky130_fd_sc_hd__xnor2_1
*I *73:A I *D sky130_fd_sc_hd__inv_1
*I *161:X O *D sky130_fd_sc_hd__clkdlybuf4s50_1
*CAP
1 *69:B 0.000153141
2 *73:A 0
3 *161:X 0.000118783
4 *14:6 0.000271923
5 *12:27 *69:B 4.40342e-05
*RES
1 *161:X *14:6 12.0402 
2 *14:6 *73:A 9.24915 
3 *14:6 *69:B 22.0616 
*END

*D_NET *15 0.000916439
*CONN
*I *55:D I *D sky130_fd_sc_hd__edfxtp_1
*I *62:Y O *D sky130_fd_sc_hd__o21ai_0
*CAP
1 *55:D 0.000284595
2 *62:Y 0.000284595
3 *55:D *62:B1 1.43832e-05
4 *55:D *156:A 6.24474e-06
5 *55:D *19:36 0.000137987
6 *58:CLK *55:D 7.46666e-05
7 *62:A2 *55:D 0.000113968
*RES
1 *62:Y *55:D 34.5453 
*END

*D_NET *16 0.000934997
*CONN
*I *56:D I *D sky130_fd_sc_hd__edfxtp_1
*I *63:X O *D sky130_fd_sc_hd__mux2_2
*CAP
1 *56:D 0.000294537
2 *63:X 0.000294537
3 *56:D *56:DE 0.000239493
4 *56:CLK *56:D 1.13647e-05
5 *63:A0 *56:D 0
6 *162:A *56:D 9.50664e-05
*RES
1 *63:X *56:D 34.6579 
*END

*D_NET *17 0.000435041
*CONN
*I *57:D I *D sky130_fd_sc_hd__edfxtp_1
*I *66:Y O *D sky130_fd_sc_hd__a21oi_1
*CAP
1 *57:D 0.00018978
2 *66:Y 0.00018978
3 *57:D *57:DE 3.15919e-05
4 *163:A *57:D 5.49029e-06
5 *8:14 *57:D 0
6 *8:21 *57:D 1.83992e-05
*RES
1 *66:Y *57:D 31.2579 
*END

*D_NET *18 0.000553819
*CONN
*I *58:D I *D sky130_fd_sc_hd__edfxtp_1
*I *72:X O *D sky130_fd_sc_hd__a211o_1
*CAP
1 *58:D 0.000259757
2 *72:X 0.000259757
3 *58:D *58:DE 3.43037e-05
*RES
1 *72:X *58:D 33.3799 
*END

*D_NET *19 0.00562265
*CONN
*I *58:DE I *D sky130_fd_sc_hd__edfxtp_1
*I *55:DE I *D sky130_fd_sc_hd__edfxtp_1
*I *57:DE I *D sky130_fd_sc_hd__edfxtp_1
*I *56:DE I *D sky130_fd_sc_hd__edfxtp_1
*I *59:Y O *D sky130_fd_sc_hd__o21ai_0
*CAP
1 *58:DE 0.000558958
2 *55:DE 0
3 *57:DE 0.000198084
4 *56:DE 0.000378161
5 *59:Y 0.000100788
6 *19:36 0.000829105
7 *19:10 0.000818901
8 *19:8 0.000613591
9 *56:DE Q[1] 2.60879e-06
10 *56:DE *154:A 0
11 *19:10 *155:A 0
12 *19:10 *157:A 0
13 *19:10 *158:A 0
14 *19:10 *161:A 2.87136e-06
15 *19:36 *159:A 0
16 *19:36 *160:A 0
17 *55:D *19:36 0.000137987
18 *56:D *56:DE 0.000239493
19 *56:CLK *56:DE 0.000219357
20 *56:CLK *57:DE 6.08467e-05
21 *57:D *57:DE 3.15919e-05
22 *57:CLK *57:DE 0.000217937
23 *58:D *58:DE 3.43037e-05
24 *58:CLK *19:36 8.70662e-06
25 *59:A1 *19:10 7.37686e-05
26 *59:A1 *19:36 5.0317e-05
27 *59:A2 *19:8 2.41274e-06
28 *60:A *58:DE 8.45537e-05
29 *62:A2 *58:DE 7.87484e-05
30 *163:A *57:DE 3.58804e-05
31 *5:12 *56:DE 2.95757e-05
32 *5:12 *19:10 0.000220017
33 *5:42 *19:10 0.000254893
34 *5:42 *19:36 0.000232369
35 *8:10 *19:36 1.82679e-05
36 *8:14 *56:DE 8.61473e-05
37 *8:50 *19:8 2.41274e-06
*RES
1 *59:Y *19:8 15.0271 
2 *19:8 *19:10 8.47603 
3 *19:10 *56:DE 26.0904 
4 *19:10 *57:DE 19.0842 
5 *19:8 *19:36 12.91 
6 *19:36 *55:DE 9.24915 
7 *19:36 *58:DE 31.7797 
*END

*D_NET *20 0.00330528
*CONN
*I *79:B I *D sky130_fd_sc_hd__ha_1
*I *80:B I *D sky130_fd_sc_hd__ha_1
*I *78:CIN I *D sky130_fd_sc_hd__fa_1
*I *77:A1 I *D sky130_fd_sc_hd__a21oi_1
*I *76:A I *D sky130_fd_sc_hd__nor2_1
*I *73:Y O *D sky130_fd_sc_hd__inv_1
*CAP
1 *79:B 0
2 *80:B 4.39587e-05
3 *78:CIN 6.79337e-05
4 *77:A1 9.63041e-05
5 *76:A 0
6 *73:Y 0.00042482
7 *20:22 0.000335066
8 *20:14 0.000562782
9 *20:12 0.000432306
10 *20:10 0.000557081
11 *77:A1 *77:A2 7.34948e-06
12 *77:A1 *77:B1 6.92705e-05
13 *78:CIN *63:A1 2.09463e-05
14 *20:10 *32:12 0
15 *20:12 *26:21 9.58983e-05
16 *20:12 *32:12 0
17 *20:14 *64:B 5.2737e-05
18 *20:14 *26:21 2.94933e-05
19 *20:22 *76:B 3.49966e-05
20 *20:22 *77:B1 2.41483e-05
21 *75:D *20:14 6.00124e-05
22 *79:A *20:12 8.82418e-05
23 *79:A *20:14 9.01897e-05
24 *9:37 *20:12 0
25 *9:80 *78:CIN 6.27718e-05
26 *11:25 *80:B 0.000110458
27 *13:12 *77:A1 3.85195e-05
*RES
1 *73:Y *20:10 20.0488 
2 *20:10 *20:12 4.73876 
3 *20:12 *20:14 7.23027 
4 *20:14 *20:22 10.683 
5 *20:22 *76:A 9.24915 
6 *20:22 *77:A1 12.2392 
7 *20:14 *78:CIN 15.5817 
8 *20:12 *80:B 15.0271 
9 *20:10 *79:B 13.7491 
*END

*D_NET *21 0.000684304
*CONN
*I *64:A I *D sky130_fd_sc_hd__xnor2_1
*I *78:COUT O *D sky130_fd_sc_hd__fa_1
*CAP
1 *64:A 0.000233636
2 *78:COUT 0.000233636
3 *64:A *63:A1 0.000217031
*RES
1 *78:COUT *64:A 32.1327 
*END

*D_NET *22 0.00178166
*CONN
*I *63:A1 I *D sky130_fd_sc_hd__mux2_2
*I *78:SUM O *D sky130_fd_sc_hd__fa_1
*CAP
1 *63:A1 0.000634353
2 *78:SUM 0.000634353
3 *63:S *63:A1 6.46815e-05
4 *64:A *63:A1 0.000217031
5 *78:CIN *63:A1 2.09463e-05
6 *162:A *63:A1 0.000183961
7 *9:80 *63:A1 2.63403e-05
*RES
1 *78:SUM *63:A1 31.6159 
*END

*D_NET *23 0.000352469
*CONN
*I *68:A2 I *D sky130_fd_sc_hd__a21oi_1
*I *79:COUT O *D sky130_fd_sc_hd__ha_1
*CAP
1 *68:A2 8.8492e-05
2 *79:COUT 8.8492e-05
3 *68:A2 *68:A1 0.000175485
*RES
1 *79:COUT *68:A2 21.4642 
*END

*D_NET *24 0.000234404
*CONN
*I *67:B I *D sky130_fd_sc_hd__nand3_1
*I *79:SUM O *D sky130_fd_sc_hd__ha_1
*CAP
1 *67:B 1.35015e-05
2 *79:SUM 1.35015e-05
3 *67:B *67:C 2.41483e-05
4 *78:A *67:B 6.50727e-05
5 *164:A *67:B 0.00011818
*RES
1 *79:SUM *67:B 19.7763 
*END

*D_NET *25 0.000277911
*CONN
*I *68:B1 I *D sky130_fd_sc_hd__a21oi_1
*I *80:COUT O *D sky130_fd_sc_hd__ha_1
*CAP
1 *68:B1 0.000106426
2 *80:COUT 0.000106426
3 *68:B1 *68:A1 6.50586e-05
4 *79:A *68:B1 0
*RES
1 *80:COUT *68:B1 30.0537 
*END

*D_NET *26 0.00320558
*CONN
*I *68:A1 I *D sky130_fd_sc_hd__a21oi_1
*I *67:C I *D sky130_fd_sc_hd__nand3_1
*I *64:B I *D sky130_fd_sc_hd__xnor2_1
*I *80:SUM O *D sky130_fd_sc_hd__ha_1
*CAP
1 *68:A1 0.000219594
2 *67:C 0.000146097
3 *64:B 0.000366858
4 *80:SUM 0
5 *26:21 0.000490015
6 *26:6 0.000491182
7 *64:B Q[3] 1.3388e-05
8 *64:B *66:A2 0.000167441
9 *67:C *31:10 2.65831e-05
10 *67:B *67:C 2.41483e-05
11 *68:A2 *68:A1 0.000175485
12 *68:B1 *68:A1 6.50586e-05
13 *78:A *67:C 0.000107496
14 *79:A *68:A1 6.50727e-05
15 *164:A *67:C 2.20567e-05
16 *164:A *26:21 0.000123582
17 *165:A *64:B 0.000305757
18 *9:37 *26:21 6.08697e-06
19 *12:27 *26:21 0
20 *12:36 *64:B 0.000211546
21 *20:12 *26:21 9.58983e-05
22 *20:14 *64:B 5.2737e-05
23 *20:14 *26:21 2.94933e-05
*RES
1 *80:SUM *26:6 13.7491 
2 *26:6 *64:B 24.4842 
3 *26:6 *26:21 9.23876 
4 *26:21 *67:C 13.3243 
5 *26:21 *68:A1 15.7115 
*END

*D_NET *27 0.00330747
*CONN