*SPEF "ieee 1481-1999"
*DESIGN "traffic_light"
*DATE "06:47:22 Tuesday July 07, 2026"
*VENDOR "The OpenROAD Project"
*PROGRAM "OpenROAD"
*VERSION "26Q1-1392-g93cb34c5d4"
*DESIGN_FLOW "NAME_SCOPE LOCAL" "PIN_CAP NONE"
*DIVIDER /
*DELIMITER :
*BUS_DELIMITER []
*T_UNIT 1 NS
*C_UNIT 1 PF
*R_UNIT 1 OHM
*L_UNIT 1 HENRY

*NAME_MAP
*1 _000_
*2 _001_
*3 _002_
*4 _003_
*5 _004_
*6 _005_
*7 _006_
*8 _007_
*9 _008_
*10 _009_
*11 _010_
*12 _011_
*13 _012_
*14 _013_
*15 _014_
*16 _015_
*17 _016_
*18 _017_
*19 _018_
*20 _019_
*21 _020_
*22 _021_
*23 _022_
*24 _023_
*25 _024_
*26 _025_
*27 _026_
*28 _027_
*29 _028_
*30 _029_
*31 _030_
*32 _031_
*33 _032_
*34 _033_
*35 _034_
*36 _035_
*37 _036_
*38 _037_
*39 _038_
*40 _039_
*41 _040_
*42 _041_
*43 _042_
*44 _043_
*45 _044_
*46 _045_
*47 _046_
*48 red
*49 _048_
*50 _049_
*51 _050_
*52 _051_
*53 green
*54 _053_
*55 _054_
*56 _055_
*57 _056_
*58 _057_
*59 _058_
*60 _059_
*61 _060_
*62 _061_
*63 _062_
*64 _063_
*65 _064_
*66 _065_
*67 _066_
*68 _067_
*69 _068_
*70 _069_
*71 _070_
*72 _071_
*73 _072_
*74 _073_
*75 _074_
*76 _075_
*77 _076_
*78 _077_
*79 _078_
*80 _079_
*81 _080_
*82 _081_
*83 _082_
*84 _083_
*85 _084_
*86 rst_n
*87 _086_
*88 _087_
*89 _088_
*90 _089_
*91 _090_
*92 _091_
*93 _092_
*94 _093_
*95 _094_
*96 _095_
*97 _096_
*98 _097_
*99 _098_
*100 _099_
*101 _100_
*102 _101_
*103 _102_
*104 _103_
*105 _104_
*106 _105_
*107 _106_
*108 _107_
*109 _108_
*110 _109_
*111 _110_
*112 _111_
*113 _112_
*114 _113_
*115 _114_
*116 _115_
*117 _116_
*118 _117_
*119 _118_
*120 _119_
*121 _120_
*122 _121_
*123 _122_
*124 _123_
*125 _124_
*126 _125_
*127 _126_
*128 _127_
*129 _128_
*130 _129_
*131 _130_
*132 net10
*133 _132_
*134 _133_
*135 _134_
*136 net9
*137 _136_
*138 yellow
*139 _138_
*140 clk
*141 net2
*142 net3
*143 net1
*144 timer\[0\]
*145 timer\[10\]
*146 timer\[11\]
*147 timer\[12\]
*148 timer\[13\]
*149 timer\[14\]
*150 timer\[15\]
*151 timer\[16\]
*152 timer\[17\]
*153 timer\[18\]
*154 timer\[19\]
*155 timer\[1\]
*156 timer\[20\]
*157 timer\[21\]
*158 timer\[22\]
*159 timer\[23\]
*160 timer\[24\]
*161 timer\[25\]
*162 timer\[26\]
*163 timer\[27\]
*164 timer\[28\]
*165 timer\[29\]
*166 timer\[2\]
*167 timer\[30\]
*168 timer\[31\]
*169 timer\[3\]
*170 timer\[4\]
*171 timer\[5\]
*172 timer\[6\]
*173 timer\[7\]
*174 timer\[8\]
*175 timer\[9\]
*176 net4
*179 net7
*180 net8
*181 clknet_0_clk
*182 clknet_2_0__leaf_clk
*183 clknet_2_1__leaf_clk
*184 clknet_2_2__leaf_clk
*185 clknet_2_3__leaf_clk
*186 _139_
*187 _140_
*188 _141_
*189 _142_
*190 _143_
*191 _144_
*192 _145_
*193 _146_
*194 _147_
*195 _148_
*196 _149_
*197 _150_
*198 _151_
*199 place10
*200 _153_
*201 _154_
*202 _155_
*203 _156_
*204 _157_
*205 _158_
*206 _159_
*207 place9
*208 _161_
*209 output4
*210 _163_
*211 _164_
*212 _165_
*213 _166_
*214 _167_
*215 _168_
*216 _169_
*217 _170_
*218 _171_
*219 _172_
*220 output3
*221 _174_
*222 _175_
*223 _176_
*224 _177_
*225 _178_
*226 _179_
*227 output2
*228 _181_
*229 _182_
*230 _183_
*231 _184_
*232 _185_
*233 _186_
*234 _187_
*235 _188_
*236 _189_
*237 _190_
*238 _191_
*239 _192_
*240 _193_
*241 _194_
*242 _195_
*243 _196_
*244 _197_
*245 _198_
*246 _199_
*247 _200_
*248 _201_
*249 _202_
*250 _203_
*251 _204_
*252 _205_
*253 _206_
*254 _207_
*255 _208_
*256 _209_
*257 _210_
*258 _211_
*259 _212_
*260 _213_
*261 _214_
*262 _215_
*263 _216_
*264 _217_
*265 _218_
*266 _219_
*267 _220_
*268 _221_
*269 _222_
*270 _223_
*271 input1
*272 _225_
*273 _226_
*274 _227_
*275 _228_
*276 _229_
*277 _230_
*278 _231_
*279 _232_
*280 _233_
*281 _234_
*282 _235_
*283 _236_
*284 _237_
*285 _238_
*286 _239_
*287 _240_
*288 _241_
*289 _242_
*290 _243_
*291 _244_
*292 _245_
*293 _246_
*294 _247_
*295 _248_
*296 _249_
*297 _250_
*298 _251_
*299 _252_
*300 _253_
*301 _254_
*302 _255_
*303 _256_
*304 _257_
*305 _258_
*306 _259_
*307 _260_
*308 _261_
*309 _262_
*310 _263_
*311 _264_
*312 _265_
*313 _266_
*314 _267_
*315 _268_
*316 _269_
*317 _270_
*318 _271_
*319 _272_
*320 _273_
*321 _274_
*322 _275_
*323 _276_
*324 _277_
*325 _278_
*326 timer\[0\]\$_DFF_PN1_
*327 timer\[10\]\$_DFF_PN0_
*328 timer\[11\]\$_DFF_PN0_
*329 timer\[12\]\$_DFF_PN0_
*330 timer\[13\]\$_DFF_PN0_
*331 timer\[14\]\$_DFF_PN0_
*332 timer\[15\]\$_DFF_PN0_
*333 timer\[16\]\$_DFF_PN0_
*334 timer\[17\]\$_DFF_PN0_
*335 timer\[18\]\$_DFF_PN0_
*336 timer\[19\]\$_DFF_PN0_
*337 timer\[1\]\$_DFF_PN1_
*338 timer\[20\]\$_DFF_PN0_
*339 timer\[21\]\$_DFF_PN0_
*340 timer\[22\]\$_DFF_PN0_
*341 timer\[23\]\$_DFF_PN0_
*342 timer\[24\]\$_DFF_PN0_
*343 timer\[25\]\$_DFF_PN0_
*344 timer\[26\]\$_DFF_PN0_
*345 timer\[27\]\$_DFF_PN0_
*346 timer\[28\]\$_DFF_PN0_
*347 timer\[29\]\$_DFF_PN0_
*348 timer\[2\]\$_DFF_PN1_
*349 timer\[30\]\$_DFF_PN0_
*350 timer\[31\]\$_DFF_PN0_
*351 timer\[3\]\$_DFF_PN0_
*352 timer\[4\]\$_DFF_PN0_
*353 timer\[5\]\$_DFF_PN0_
*354 timer\[6\]\$_DFF_PN0_
*355 timer\[7\]\$_DFF_PN0_
*356 timer\[8\]\$_DFF_PN0_
*357 timer\[9\]\$_DFF_PN0_
*358 TAP_TAPCELL_ROW_0_0
*359 TAP_TAPCELL_ROW_0_1
*360 TAP_TAPCELL_ROW_0_2
*361 TAP_TAPCELL_ROW_0_3
*362 TAP_TAPCELL_ROW_0_4
*363 TAP_TAPCELL_ROW_0_5
*364 TAP_TAPCELL_ROW_0_6
*365 TAP_TAPCELL_ROW_0_7
*366 TAP_TAPCELL_ROW_0_8
*367 TAP_TAPCELL_ROW_0_9
*368 TAP_TAPCELL_ROW_0_10
*369 TAP_TAPCELL_ROW_0_11
*370 TAP_TAPCELL_ROW_0_12
*371 TAP_TAPCELL_ROW_1_13
*372 TAP_TAPCELL_ROW_1_14
*373 TAP_TAPCELL_ROW_1_15
*374 TAP_TAPCELL_ROW_1_16
*375 TAP_TAPCELL_ROW_1_17
*376 TAP_TAPCELL_ROW_1_18
*377 TAP_TAPCELL_ROW_2_19
*378 TAP_TAPCELL_ROW_2_20
*379 TAP_TAPCELL_ROW_2_21
*380 TAP_TAPCELL_ROW_2_22
*381 TAP_TAPCELL_ROW_2_23
*382 TAP_TAPCELL_ROW_2_24
*383 TAP_TAPCELL_ROW_2_25
*384 TAP_TAPCELL_ROW_3_26
*385 TAP_TAPCELL_ROW_3_27
*386 TAP_TAPCELL_ROW_3_28
*387 TAP_TAPCELL_ROW_3_29
*388 TAP_TAPCELL_ROW_3_30
*389 TAP_TAPCELL_ROW_3_31
*390 TAP_TAPCELL_ROW_4_32
*391 TAP_TAPCELL_ROW_4_33
*392 TAP_TAPCELL_ROW_4_34
*393 TAP_TAPCELL_ROW_4_35
*394 TAP_TAPCELL_ROW_4_36
*395 TAP_TAPCELL_ROW_4_37
*396 TAP_TAPCELL_ROW_4_38
*397 TAP_TAPCELL_ROW_5_39
*398 TAP_TAPCELL_ROW_5_40
*399 TAP_TAPCELL_ROW_5_41
*400 TAP_TAPCELL_ROW_5_42
*401 TAP_TAPCELL_ROW_5_43
*402 TAP_TAPCELL_ROW_5_44
*403 TAP_TAPCELL_ROW_6_45
*404 TAP_TAPCELL_ROW_6_46
*405 TAP_TAPCELL_ROW_6_47
*406 TAP_TAPCELL_ROW_6_48
*407 TAP_TAPCELL_ROW_6_49
*408 TAP_TAPCELL_ROW_6_50
*409 TAP_TAPCELL_ROW_6_51
*410 TAP_TAPCELL_ROW_7_52
*411 TAP_TAPCELL_ROW_7_53
*412 TAP_TAPCELL_ROW_7_54
*413 TAP_TAPCELL_ROW_7_55
*414 TAP_TAPCELL_ROW_7_56
*415 TAP_TAPCELL_ROW_7_57
*416 TAP_TAPCELL_ROW_8_58
*417 TAP_TAPCELL_ROW_8_59
*418 TAP_TAPCELL_ROW_8_60
*419 TAP_TAPCELL_ROW_8_61
*420 TAP_TAPCELL_ROW_8_62
*421 TAP_TAPCELL_ROW_8_63
*422 TAP_TAPCELL_ROW_8_64
*423 TAP_TAPCELL_ROW_9_65
*424 TAP_TAPCELL_ROW_9_66
*425 TAP_TAPCELL_ROW_9_67
*426 TAP_TAPCELL_ROW_9_68
*427 TAP_TAPCELL_ROW_9_69
*428 TAP_TAPCELL_ROW_9_70
*429 TAP_TAPCELL_ROW_10_71
*430 TAP_TAPCELL_ROW_10_72
*431 TAP_TAPCELL_ROW_10_73
*432 TAP_TAPCELL_ROW_10_74
*433 TAP_TAPCELL_ROW_10_75
*434 TAP_TAPCELL_ROW_10_76
*435 TAP_TAPCELL_ROW_10_77
*436 TAP_TAPCELL_ROW_11_78
*437 TAP_TAPCELL_ROW_11_79
*438 TAP_TAPCELL_ROW_11_80
*439 TAP_TAPCELL_ROW_11_81
*440 TAP_TAPCELL_ROW_11_82
*441 TAP_TAPCELL_ROW_11_83
*442 TAP_TAPCELL_ROW_12_84
*443 TAP_TAPCELL_ROW_12_85
*444 TAP_TAPCELL_ROW_12_86
*445 TAP_TAPCELL_ROW_12_87
*446 TAP_TAPCELL_ROW_12_88
*447 TAP_TAPCELL_ROW_12_89
*448 TAP_TAPCELL_ROW_12_90
*449 TAP_TAPCELL_ROW_13_91
*450 TAP_TAPCELL_ROW_13_92
*451 TAP_TAPCELL_ROW_13_93
*452 TAP_TAPCELL_ROW_13_94
*453 TAP_TAPCELL_ROW_13_95
*454 TAP_TAPCELL_ROW_13_96
*455 TAP_TAPCELL_ROW_14_97
*456 TAP_TAPCELL_ROW_14_98
*457 TAP_TAPCELL_ROW_14_99
*458 TAP_TAPCELL_ROW_14_100
*459 TAP_TAPCELL_ROW_14_101
*460 TAP_TAPCELL_ROW_14_102
*461 TAP_TAPCELL_ROW_14_103
*462 TAP_TAPCELL_ROW_15_104
*463 TAP_TAPCELL_ROW_15_105
*464 TAP_TAPCELL_ROW_15_106
*465 TAP_TAPCELL_ROW_15_107
*466 TAP_TAPCELL_ROW_15_108
*467 TAP_TAPCELL_ROW_15_109
*468 TAP_TAPCELL_ROW_16_110
*469 TAP_TAPCELL_ROW_16_111
*470 TAP_TAPCELL_ROW_16_112
*471 TAP_TAPCELL_ROW_16_113
*472 TAP_TAPCELL_ROW_16_114
*473 TAP_TAPCELL_ROW_16_115
*474 TAP_TAPCELL_ROW_16_116
*475 TAP_TAPCELL_ROW_17_117
*476 TAP_TAPCELL_ROW_17_118
*477 TAP_TAPCELL_ROW_17_119
*478 TAP_TAPCELL_ROW_17_120
*479 TAP_TAPCELL_ROW_17_121
*480 TAP_TAPCELL_ROW_17_122
*481 TAP_TAPCELL_ROW_18_123
*482 TAP_TAPCELL_ROW_18_124
*483 TAP_TAPCELL_ROW_18_125
*484 TAP_TAPCELL_ROW_18_126
*485 TAP_TAPCELL_ROW_18_127
*486 TAP_TAPCELL_ROW_18_128
*487 TAP_TAPCELL_ROW_18_129
*488 TAP_TAPCELL_ROW_19_130
*489 TAP_TAPCELL_ROW_19_131
*490 TAP_TAPCELL_ROW_19_132
*491 TAP_TAPCELL_ROW_19_133
*492 TAP_TAPCELL_ROW_19_134
*493 TAP_TAPCELL_ROW_19_135
*494 TAP_TAPCELL_ROW_20_136
*495 TAP_TAPCELL_ROW_20_137
*496 TAP_TAPCELL_ROW_20_138
*497 TAP_TAPCELL_ROW_20_139
*498 TAP_TAPCELL_ROW_20_140
*499 TAP_TAPCELL_ROW_20_141
*500 TAP_TAPCELL_ROW_20_142
*501 TAP_TAPCELL_ROW_21_143
*502 TAP_TAPCELL_ROW_21_144
*503 TAP_TAPCELL_ROW_21_145
*504 TAP_TAPCELL_ROW_21_146
*505 TAP_TAPCELL_ROW_21_147
*506 TAP_TAPCELL_ROW_21_148
*507 TAP_TAPCELL_ROW_22_149
*508 TAP_TAPCELL_ROW_22_150
*509 TAP_TAPCELL_ROW_22_151
*510 TAP_TAPCELL_ROW_22_152
*511 TAP_TAPCELL_ROW_22_153
*512 TAP_TAPCELL_ROW_22_154
*513 TAP_TAPCELL_ROW_22_155
*514 TAP_TAPCELL_ROW_23_156
*515 TAP_TAPCELL_ROW_23_157
*516 TAP_TAPCELL_ROW_23_158
*517 TAP_TAPCELL_ROW_23_159
*518 TAP_TAPCELL_ROW_23_160
*519 TAP_TAPCELL_ROW_23_161
*520 TAP_TAPCELL_ROW_24_162
*521 TAP_TAPCELL_ROW_24_163
*522 TAP_TAPCELL_ROW_24_164
*523 TAP_TAPCELL_ROW_24_165
*524 TAP_TAPCELL_ROW_24_166
*525 TAP_TAPCELL_ROW_24_167
*526 TAP_TAPCELL_ROW_24_168
*527 TAP_TAPCELL_ROW_25_169
*528 TAP_TAPCELL_ROW_25_170
*529 TAP_TAPCELL_ROW_25_171
*530 TAP_TAPCELL_ROW_25_172
*531 TAP_TAPCELL_ROW_25_173
*532 TAP_TAPCELL_ROW_25_174
*533 TAP_TAPCELL_ROW_26_175
*534 TAP_TAPCELL_ROW_26_176
*535 TAP_TAPCELL_ROW_26_177
*536 TAP_TAPCELL_ROW_26_178
*537 TAP_TAPCELL_ROW_26_179
*538 TAP_TAPCELL_ROW_26_180
*539 TAP_TAPCELL_ROW_26_181
*540 TAP_TAPCELL_ROW_27_182
*541 TAP_TAPCELL_ROW_27_183
*542 TAP_TAPCELL_ROW_27_184
*543 TAP_TAPCELL_ROW_27_185
*544 TAP_TAPCELL_ROW_27_186
*545 TAP_TAPCELL_ROW_27_187
*546 TAP_TAPCELL_ROW_28_188
*547 TAP_TAPCELL_ROW_28_189
*548 TAP_TAPCELL_ROW_28_190
*549 TAP_TAPCELL_ROW_28_191
*550 TAP_TAPCELL_ROW_28_192
*551 TAP_TAPCELL_ROW_28_193
*552 TAP_TAPCELL_ROW_28_194
*553 TAP_TAPCELL_ROW_29_195
*554 TAP_TAPCELL_ROW_29_196
*555 TAP_TAPCELL_ROW_29_197
*556 TAP_TAPCELL_ROW_29_198
*557 TAP_TAPCELL_ROW_29_199
*558 TAP_TAPCELL_ROW_29_200
*559 TAP_TAPCELL_ROW_30_201
*560 TAP_TAPCELL_ROW_30_202
*561 TAP_TAPCELL_ROW_30_203
*562 TAP_TAPCELL_ROW_30_204
*563 TAP_TAPCELL_ROW_30_205
*564 TAP_TAPCELL_ROW_30_206
*565 TAP_TAPCELL_ROW_30_207
*566 TAP_TAPCELL_ROW_31_208
*567 TAP_TAPCELL_ROW_31_209
*568 TAP_TAPCELL_ROW_31_210
*569 TAP_TAPCELL_ROW_31_211
*570 TAP_TAPCELL_ROW_31_212
*571 TAP_TAPCELL_ROW_31_213
*572 TAP_TAPCELL_ROW_32_214
*573 TAP_TAPCELL_ROW_32_215
*574 TAP_TAPCELL_ROW_32_216
*575 TAP_TAPCELL_ROW_32_217
*576 TAP_TAPCELL_ROW_32_218
*577 TAP_TAPCELL_ROW_32_219
*578 TAP_TAPCELL_ROW_32_220
*579 TAP_TAPCELL_ROW_33_221
*580 TAP_TAPCELL_ROW_33_222
*581 TAP_TAPCELL_ROW_33_223
*582 TAP_TAPCELL_ROW_33_224
*583 TAP_TAPCELL_ROW_33_225
*584 TAP_TAPCELL_ROW_33_226
*585 TAP_TAPCELL_ROW_34_227
*586 TAP_TAPCELL_ROW_34_228
*587 TAP_TAPCELL_ROW_34_229
*588 TAP_TAPCELL_ROW_34_230
*589 TAP_TAPCELL_ROW_34_231
*590 TAP_TAPCELL_ROW_34_232
*591 TAP_TAPCELL_ROW_34_233
*592 TAP_TAPCELL_ROW_35_234
*593 TAP_TAPCELL_ROW_35_235
*594 TAP_TAPCELL_ROW_35_236
*595 TAP_TAPCELL_ROW_35_237
*596 TAP_TAPCELL_ROW_35_238
*597 TAP_TAPCELL_ROW_35_239
*598 TAP_TAPCELL_ROW_36_240
*599 TAP_TAPCELL_ROW_36_241
*600 TAP_TAPCELL_ROW_36_242
*601 TAP_TAPCELL_ROW_36_243
*602 TAP_TAPCELL_ROW_36_244
*603 TAP_TAPCELL_ROW_36_245
*604 TAP_TAPCELL_ROW_36_246
*605 TAP_TAPCELL_ROW_37_247
*606 TAP_TAPCELL_ROW_37_248
*607 TAP_TAPCELL_ROW_37_249
*608 TAP_TAPCELL_ROW_37_250
*609 TAP_TAPCELL_ROW_37_251
*610 TAP_TAPCELL_ROW_37_252
*611 TAP_TAPCELL_ROW_38_253
*612 TAP_TAPCELL_ROW_38_254
*613 TAP_TAPCELL_ROW_38_255
*614 TAP_TAPCELL_ROW_38_256
*615 TAP_TAPCELL_ROW_38_257
*616 TAP_TAPCELL_ROW_38_258
*617 TAP_TAPCELL_ROW_38_259
*618 TAP_TAPCELL_ROW_39_260
*619 TAP_TAPCELL_ROW_39_261
*620 TAP_TAPCELL_ROW_39_262
*621 TAP_TAPCELL_ROW_39_263
*622 TAP_TAPCELL_ROW_39_264
*623 TAP_TAPCELL_ROW_39_265
*624 TAP_TAPCELL_ROW_40_266
*625 TAP_TAPCELL_ROW_40_267
*626 TAP_TAPCELL_ROW_40_268
*627 TAP_TAPCELL_ROW_40_269
*628 TAP_TAPCELL_ROW_40_270
*629 TAP_TAPCELL_ROW_40_271
*630 TAP_TAPCELL_ROW_40_272
*631 TAP_TAPCELL_ROW_41_273
*632 TAP_TAPCELL_ROW_41_274
*633 TAP_TAPCELL_ROW_41_275
*634 TAP_TAPCELL_ROW_41_276
*635 TAP_TAPCELL_ROW_41_277
*636 TAP_TAPCELL_ROW_41_278
*637 TAP_TAPCELL_ROW_42_279
*638 TAP_TAPCELL_ROW_42_280
*639 TAP_TAPCELL_ROW_42_281
*640 TAP_TAPCELL_ROW_42_282
*641 TAP_TAPCELL_ROW_42_283
*642 TAP_TAPCELL_ROW_42_284
*643 TAP_TAPCELL_ROW_42_285
*644 TAP_TAPCELL_ROW_43_286
*645 TAP_TAPCELL_ROW_43_287
*646 TAP_TAPCELL_ROW_43_288
*647 TAP_TAPCELL_ROW_43_289
*648 TAP_TAPCELL_ROW_43_290
*649 TAP_TAPCELL_ROW_43_291
*650 TAP_TAPCELL_ROW_44_292
*651 TAP_TAPCELL_ROW_44_293
*652 TAP_TAPCELL_ROW_44_294
*653 TAP_TAPCELL_ROW_44_295
*654 TAP_TAPCELL_ROW_44_296
*655 TAP_TAPCELL_ROW_44_297
*656 TAP_TAPCELL_ROW_44_298
*657 TAP_TAPCELL_ROW_45_299
*658 TAP_TAPCELL_ROW_45_300
*659 TAP_TAPCELL_ROW_45_301
*660 TAP_TAPCELL_ROW_45_302
*661 TAP_TAPCELL_ROW_45_303
*662 TAP_TAPCELL_ROW_45_304
*663 TAP_TAPCELL_ROW_46_305
*664 TAP_TAPCELL_ROW_46_306
*665 TAP_TAPCELL_ROW_46_307
*666 TAP_TAPCELL_ROW_46_308
*667 TAP_TAPCELL_ROW_46_309
*668 TAP_TAPCELL_ROW_46_310
*669 TAP_TAPCELL_ROW_46_311
*670 TAP_TAPCELL_ROW_47_312
*671 TAP_TAPCELL_ROW_47_313
*672 TAP_TAPCELL_ROW_47_314
*673 TAP_TAPCELL_ROW_47_315
*674 TAP_TAPCELL_ROW_47_316
*675 TAP_TAPCELL_ROW_47_317
*676 TAP_TAPCELL_ROW_48_318
*677 TAP_TAPCELL_ROW_48_319
*678 TAP_TAPCELL_ROW_48_320
*679 TAP_TAPCELL_ROW_48_321
*680 TAP_TAPCELL_ROW_48_322
*681 TAP_TAPCELL_ROW_48_323
*682 TAP_TAPCELL_ROW_48_324
*683 TAP_TAPCELL_ROW_49_325
*684 TAP_TAPCELL_ROW_49_326
*685 TAP_TAPCELL_ROW_49_327
*686 TAP_TAPCELL_ROW_49_328
*687 TAP_TAPCELL_ROW_49_329
*688 TAP_TAPCELL_ROW_49_330
*689 TAP_TAPCELL_ROW_50_331
*690 TAP_TAPCELL_ROW_50_332
*691 TAP_TAPCELL_ROW_50_333
*692 TAP_TAPCELL_ROW_50_334
*693 TAP_TAPCELL_ROW_50_335
*694 TAP_TAPCELL_ROW_50_336
*695 TAP_TAPCELL_ROW_50_337
*696 TAP_TAPCELL_ROW_51_338
*697 TAP_TAPCELL_ROW_51_339
*698 TAP_TAPCELL_ROW_51_340
*699 TAP_TAPCELL_ROW_51_341
*700 TAP_TAPCELL_ROW_51_342
*701 TAP_TAPCELL_ROW_51_343
*702 TAP_TAPCELL_ROW_52_344
*703 TAP_TAPCELL_ROW_52_345
*704 TAP_TAPCELL_ROW_52_346
*705 TAP_TAPCELL_ROW_52_347
*706 TAP_TAPCELL_ROW_52_348
*707 TAP_TAPCELL_ROW_52_349
*708 TAP_TAPCELL_ROW_52_350
*709 TAP_TAPCELL_ROW_53_351
*710 TAP_TAPCELL_ROW_53_352
*711 TAP_TAPCELL_ROW_53_353
*712 TAP_TAPCELL_ROW_53_354
*713 TAP_TAPCELL_ROW_53_355
*714 TAP_TAPCELL_ROW_53_356
*715 TAP_TAPCELL_ROW_54_357
*716 TAP_TAPCELL_ROW_54_358
*717 TAP_TAPCELL_ROW_54_359
*718 TAP_TAPCELL_ROW_54_360
*719 TAP_TAPCELL_ROW_54_361
*720 TAP_TAPCELL_ROW_54_362
*721 TAP_TAPCELL_ROW_54_363
*722 TAP_TAPCELL_ROW_55_364
*723 TAP_TAPCELL_ROW_55_365
*724 TAP_TAPCELL_ROW_55_366
*725 TAP_TAPCELL_ROW_55_367
*726 TAP_TAPCELL_ROW_55_368
*727 TAP_TAPCELL_ROW_55_369
*728 TAP_TAPCELL_ROW_56_370
*729 TAP_TAPCELL_ROW_56_371
*730 TAP_TAPCELL_ROW_56_372
*731 TAP_TAPCELL_ROW_56_373
*732 TAP_TAPCELL_ROW_56_374
*733 TAP_TAPCELL_ROW_56_375
*734 TAP_TAPCELL_ROW_56_376
*735 TAP_TAPCELL_ROW_57_377
*736 TAP_TAPCELL_ROW_57_378
*737 TAP_TAPCELL_ROW_57_379
*738 TAP_TAPCELL_ROW_57_380
*739 TAP_TAPCELL_ROW_57_381
*740 TAP_TAPCELL_ROW_57_382
*741 TAP_TAPCELL_ROW_58_383
*742 TAP_TAPCELL_ROW_58_384
*743 TAP_TAPCELL_ROW_58_385
*744 TAP_TAPCELL_ROW_58_386
*745 TAP_TAPCELL_ROW_58_387
*746 TAP_TAPCELL_ROW_58_388
*747 TAP_TAPCELL_ROW_58_389
*748 TAP_TAPCELL_ROW_59_390
*749 TAP_TAPCELL_ROW_59_391
*750 TAP_TAPCELL_ROW_59_392
*751 TAP_TAPCELL_ROW_59_393
*752 TAP_TAPCELL_ROW_59_394
*753 TAP_TAPCELL_ROW_59_395
*754 TAP_TAPCELL_ROW_60_396
*755 TAP_TAPCELL_ROW_60_397
*756 TAP_TAPCELL_ROW_60_398
*757 TAP_TAPCELL_ROW_60_399
*758 TAP_TAPCELL_ROW_60_400
*759 TAP_TAPCELL_ROW_60_401
*760 TAP_TAPCELL_ROW_60_402
*761 TAP_TAPCELL_ROW_61_403
*762 TAP_TAPCELL_ROW_61_404
*763 TAP_TAPCELL_ROW_61_405
*764 TAP_TAPCELL_ROW_61_406
*765 TAP_TAPCELL_ROW_61_407
*766 TAP_TAPCELL_ROW_61_408
*767 TAP_TAPCELL_ROW_62_409
*768 TAP_TAPCELL_ROW_62_410
*769 TAP_TAPCELL_ROW_62_411
*770 TAP_TAPCELL_ROW_62_412
*771 TAP_TAPCELL_ROW_62_413
*772 TAP_TAPCELL_ROW_62_414
*773 TAP_TAPCELL_ROW_62_415
*774 TAP_TAPCELL_ROW_63_416
*775 TAP_TAPCELL_ROW_63_417
*776 TAP_TAPCELL_ROW_63_418
*777 TAP_TAPCELL_ROW_63_419
*778 TAP_TAPCELL_ROW_63_420
*779 TAP_TAPCELL_ROW_63_421
*780 TAP_TAPCELL_ROW_64_422
*781 TAP_TAPCELL_ROW_64_423
*782 TAP_TAPCELL_ROW_64_424
*783 TAP_TAPCELL_ROW_64_425
*784 TAP_TAPCELL_ROW_64_426
*785 TAP_TAPCELL_ROW_64_427
*786 TAP_TAPCELL_ROW_64_428
*787 TAP_TAPCELL_ROW_65_429
*788 TAP_TAPCELL_ROW_65_430
*789 TAP_TAPCELL_ROW_65_431
*790 TAP_TAPCELL_ROW_65_432
*791 TAP_TAPCELL_ROW_65_433
*792 TAP_TAPCELL_ROW_65_434
*793 TAP_TAPCELL_ROW_66_435
*794 TAP_TAPCELL_ROW_66_436
*795 TAP_TAPCELL_ROW_66_437
*796 TAP_TAPCELL_ROW_66_438
*797 TAP_TAPCELL_ROW_66_439
*798 TAP_TAPCELL_ROW_66_440
*799 TAP_TAPCELL_ROW_66_441
*800 TAP_TAPCELL_ROW_67_442
*801 TAP_TAPCELL_ROW_67_443
*802 TAP_TAPCELL_ROW_67_444
*803 TAP_TAPCELL_ROW_67_445
*804 TAP_TAPCELL_ROW_67_446
*805 TAP_TAPCELL_ROW_67_447
*806 TAP_TAPCELL_ROW_68_448
*807 TAP_TAPCELL_ROW_68_449
*808 TAP_TAPCELL_ROW_68_450
*809 TAP_TAPCELL_ROW_68_451
*810 TAP_TAPCELL_ROW_68_452
*811 TAP_TAPCELL_ROW_68_453
*812 TAP_TAPCELL_ROW_68_454
*813 TAP_TAPCELL_ROW_69_455
*814 TAP_TAPCELL_ROW_69_456
*815 TAP_TAPCELL_ROW_69_457
*816 TAP_TAPCELL_ROW_69_458
*817 TAP_TAPCELL_ROW_69_459
*818 TAP_TAPCELL_ROW_69_460
*819 TAP_TAPCELL_ROW_69_461
*820 TAP_TAPCELL_ROW_69_462
*821 TAP_TAPCELL_ROW_69_463
*822 TAP_TAPCELL_ROW_69_464
*823 TAP_TAPCELL_ROW_69_465
*824 TAP_TAPCELL_ROW_69_466
*825 TAP_TAPCELL_ROW_69_467
*826 place7
*827 place8
*828 clkbuf_0_clk
*829 clkbuf_2_0__f_clk
*830 clkbuf_2_1__f_clk
*831 clkbuf_2_2__f_clk
*832 clkbuf_2_3__f_clk
*833 clkload0
*834 clkload1
*835 clkload2
*836 FILLER_0_0
*837 FILLER_0_8
*838 FILLER_0_16
*839 FILLER_0_24
*840 FILLER_0_28
*841 FILLER_0_31
*842 FILLER_0_39
*843 FILLER_0_47
*844 FILLER_0_55
*845 FILLER_0_59
*846 FILLER_0_61
*847 FILLER_0_69
*848 FILLER_0_77
*849 FILLER_0_85
*850 FILLER_0_89
*851 FILLER_0_91
*852 FILLER_0_99
*853 FILLER_0_107
*854 FILLER_0_115
*855 FILLER_0_119
*856 FILLER_0_121
*857 FILLER_0_129
*858 FILLER_0_137
*859 FILLER_0_145
*860 FILLER_0_149
*861 FILLER_0_151
*862 FILLER_0_159
*863 FILLER_0_167
*864 FILLER_0_175
*865 FILLER_0_179
*866 FILLER_0_181
*867 FILLER_0_189
*868 FILLER_0_197
*869 FILLER_0_205
*870 FILLER_0_209
*871 FILLER_0_211
*872 FILLER_0_219
*873 FILLER_0_227
*874 FILLER_0_235
*875 FILLER_0_239
*876 FILLER_0_241
*877 FILLER_0_249
*878 FILLER_0_257
*879 FILLER_0_265
*880 FILLER_0_269
*881 FILLER_0_271
*882 FILLER_0_279
*883 FILLER_0_287
*884 FILLER_0_295
*885 FILLER_0_299
*886 FILLER_0_301
*887 FILLER_0_309
*888 FILLER_0_317
*889 FILLER_0_325
*890 FILLER_0_329
*891 FILLER_0_331
*892 FILLER_0_339
*893 FILLER_0_347
*894 FILLER_0_355
*895 FILLER_0_359
*896 FILLER_0_361
*897 FILLER_0_369
*898 FILLER_0_377
*899 FILLER_0_385
*900 FILLER_0_389
*901 FILLER_0_391
*902 FILLER_0_399
*903 FILLER_0_407
*904 FILLER_0_415
*905 FILLER_1_0
*906 FILLER_1_8
*907 FILLER_1_16
*908 FILLER_1_24
*909 FILLER_1_32
*910 FILLER_1_40
*911 FILLER_1_48
*912 FILLER_1_56
*913 FILLER_1_61
*914 FILLER_1_69
*915 FILLER_1_77
*916 FILLER_1_85
*917 FILLER_1_93
*918 FILLER_1_101
*919 FILLER_1_109
*920 FILLER_1_117
*921 FILLER_1_119
*922 FILLER_1_121
*923 FILLER_1_129
*924 FILLER_1_137
*925 FILLER_1_145
*926 FILLER_1_153
*927 FILLER_1_161
*928 FILLER_1_169
*929 FILLER_1_177
*930 FILLER_1_179
*931 FILLER_1_181
*932 FILLER_1_189
*933 FILLER_1_197
*934 FILLER_1_205
*935 FILLER_1_213
*936 FILLER_1_221
*937 FILLER_1_229
*938 FILLER_1_237
*939 FILLER_1_239
*940 FILLER_1_241
*941 FILLER_1_249
*942 FILLER_1_257
*943 FILLER_1_265
*944 FILLER_1_273
*945 FILLER_1_281
*946 FILLER_1_289
*947 FILLER_1_297
*948 FILLER_1_299
*949 FILLER_1_301
*950 FILLER_1_309
*951 FILLER_1_317
*952 FILLER_1_325
*953 FILLER_1_333
*954 FILLER_1_341
*955 FILLER_1_349
*956 FILLER_1_357
*957 FILLER_1_359
*958 FILLER_1_361
*959 FILLER_1_369
*960 FILLER_1_377
*961 FILLER_1_385
*962 FILLER_1_393
*963 FILLER_1_401
*964 FILLER_1_409
*965 FILLER_1_413
*966 FILLER_1_415
*967 FILLER_2_0
*968 FILLER_2_8
*969 FILLER_2_16
*970 FILLER_2_24
*971 FILLER_2_28
*972 FILLER_2_31
*973 FILLER_2_39
*974 FILLER_2_47
*975 FILLER_2_55
*976 FILLER_2_63
*977 FILLER_2_71
*978 FILLER_2_79
*979 FILLER_2_87
*980 FILLER_2_89
*981 FILLER_2_91
*982 FILLER_2_99
*983 FILLER_2_107
*984 FILLER_2_115
*985 FILLER_2_123
*986 FILLER_2_131
*987 FILLER_2_139
*988 FILLER_2_147
*989 FILLER_2_149
*990 FILLER_2_151
*991 FILLER_2_159
*992 FILLER_2_167
*993 FILLER_2_175
*994 FILLER_2_183
*995 FILLER_2_191
*996 FILLER_2_199
*997 FILLER_2_207
*998 FILLER_2_209
*999 FILLER_2_211
*1000 FILLER_2_219
*1001 FILLER_2_227
*1002 FILLER_2_235
*1003 FILLER_2_243
*1004 FILLER_2_251
*1005 FILLER_2_259
*1006 FILLER_2_267
*1007 FILLER_2_269
*1008 FILLER_2_271
*1009 FILLER_2_279
*1010 FILLER_2_287
*1011 FILLER_2_295
*1012 FILLER_2_303
*1013 FILLER_2_311
*1014 FILLER_2_319
*1015 FILLER_2_327
*1016 FILLER_2_329
*1017 FILLER_2_331
*1018 FILLER_2_339
*1019 FILLER_2_347
*1020 FILLER_2_355
*1021 FILLER_2_363
*1022 FILLER_2_371
*1023 FILLER_2_379
*1024 FILLER_2_387
*1025 FILLER_2_389
*1026 FILLER_2_391
*1027 FILLER_2_399
*1028 FILLER_2_407
*1029 FILLER_2_415
*1030 FILLER_3_0
*1031 FILLER_3_8
*1032 FILLER_3_16
*1033 FILLER_3_24
*1034 FILLER_3_32
*1035 FILLER_3_40
*1036 FILLER_3_48
*1037 FILLER_3_56
*1038 FILLER_3_61
*1039 FILLER_3_69
*1040 FILLER_3_77
*1041 FILLER_3_85
*1042 FILLER_3_93
*1043 FILLER_3_101
*1044 FILLER_3_109
*1045 FILLER_3_117
*1046 FILLER_3_119
*1047 FILLER_3_121
*1048 FILLER_3_129
*1049 FILLER_3_137
*1050 FILLER_3_145
*1051 FILLER_3_153
*1052 FILLER_3_161
*1053 FILLER_3_169
*1054 FILLER_3_177
*1055 FILLER_3_179
*1056 FILLER_3_181
*1057 FILLER_3_189
*1058 FILLER_3_197
*1059 FILLER_3_205
*1060 FILLER_3_213
*1061 FILLER_3_221
*1062 FILLER_3_229
*1063 FILLER_3_237
*1064 FILLER_3_239
*1065 FILLER_3_241
*1066 FILLER_3_249
*1067 FILLER_3_257
*1068 FILLER_3_265
*1069 FILLER_3_273
*1070 FILLER_3_281
*1071 FILLER_3_289
*1072 FILLER_3_297
*1073 FILLER_3_299
*1074 FILLER_3_301
*1075 FILLER_3_309
*1076 FILLER_3_317
*1077 FILLER_3_325
*1078 FILLER_3_333
*1079 FILLER_3_341
*1080 FILLER_3_349
*1081 FILLER_3_357
*1082 FILLER_3_359
*1083 FILLER_3_361
*1084 FILLER_3_369
*1085 FILLER_3_377
*1086 FILLER_3_385
*1087 FILLER_3_393
*1088 FILLER_3_401
*1089 FILLER_3_409
*1090 FILLER_3_413
*1091 FILLER_3_415
*1092 FILLER_4_0
*1093 FILLER_4_8
*1094 FILLER_4_16
*1095 FILLER_4_24
*1096 FILLER_4_28
*1097 FILLER_4_31
*1098 FILLER_4_39
*1099 FILLER_4_47
*1100 FILLER_4_55
*1101 FILLER_4_63
*1102 FILLER_4_71
*1103 FILLER_4_79
*1104 FILLER_4_87
*1105 FILLER_4_89
*1106 FILLER_4_91
*1107 FILLER_4_99
*1108 FILLER_4_107
*1109 FILLER_4_115
*1110 FILLER_4_123
*1111 FILLER_4_131
*1112 FILLER_4_139
*1113 FILLER_4_147
*1114 FILLER_4_149
*1115 FILLER_4_151
*1116 FILLER_4_159
*1117 FILLER_4_167
*1118 FILLER_4_175
*1119 FILLER_4_183
*1120 FILLER_4_191
*1121 FILLER_4_199
*1122 FILLER_4_207
*1123 FILLER_4_209
*1124 FILLER_4_211
*1125 FILLER_4_219
*1126 FILLER_4_227
*1127 FILLER_4_235
*1128 FILLER_4_243
*1129 FILLER_4_251
*1130 FILLER_4_259
*1131 FILLER_4_267
*1132 FILLER_4_269
*1133 FILLER_4_271
*1134 FILLER_4_279
*1135 FILLER_4_287
*1136 FILLER_4_295
*1137 FILLER_4_303
*1138 FILLER_4_311
*1139 FILLER_4_319
*1140 FILLER_4_327
*1141 FILLER_4_329
*1142 FILLER_4_331
*1143 FILLER_4_339
*1144 FILLER_4_347
*1145 FILLER_4_355
*1146 FILLER_4_363
*1147 FILLER_4_371
*1148 FILLER_4_379
*1149 FILLER_4_387
*1150 FILLER_4_389
*1151 FILLER_4_391
*1152 FILLER_4_399
*1153 FILLER_4_407
*1154 FILLER_4_415
*1155 FILLER_5_0
*1156 FILLER_5_8
*1157 FILLER_5_16
*1158 FILLER_5_24
*1159 FILLER_5_32
*1160 FILLER_5_40
*1161 FILLER_5_48
*1162 FILLER_5_56
*1163 FILLER_5_61
*1164 FILLER_5_69
*1165 FILLER_5_77
*1166 FILLER_5_85
*1167 FILLER_5_93
*1168 FILLER_5_101
*1169 FILLER_5_109
*1170 FILLER_5_117
*1171 FILLER_5_119
*1172 FILLER_5_121
*1173 FILLER_5_129
*1174 FILLER_5_137
*1175 FILLER_5_145
*1176 FILLER_5_153
*1177 FILLER_5_161
*1178 FILLER_5_169
*1179 FILLER_5_177
*1180 FILLER_5_179
*1181 FILLER_5_181
*1182 FILLER_5_189
*1183 FILLER_5_197
*1184 FILLER_5_205
*1185 FILLER_5_213
*1186 FILLER_5_221
*1187 FILLER_5_229
*1188 FILLER_5_237
*1189 FILLER_5_239
*1190 FILLER_5_241
*1191 FILLER_5_249
*1192 FILLER_5_257
*1193 FILLER_5_265
*1194 FILLER_5_273
*1195 FILLER_5_281
*1196 FILLER_5_289
*1197 FILLER_5_297
*1198 FILLER_5_299
*1199 FILLER_5_301
*1200 FILLER_5_309
*1201 FILLER_5_317
*1202 FILLER_5_325
*1203 FILLER_5_333
*1204 FILLER_5_341
*1205 FILLER_5_349
*1206 FILLER_5_357
*1207 FILLER_5_359
*1208 FILLER_5_361
*1209 FILLER_5_369
*1210 FILLER_5_377
*1211 FILLER_5_385
*1212 FILLER_5_393
*1213 FILLER_5_401
*1214 FILLER_5_409
*1215 FILLER_5_413
*1216 FILLER_5_415
*1217 FILLER_6_0
*1218 FILLER_6_8
*1219 FILLER_6_16
*1220 FILLER_6_24
*1221 FILLER_6_28
*1222 FILLER_6_31
*1223 FILLER_6_39
*1224 FILLER_6_47
*1225 FILLER_6_55
*1226 FILLER_6_63
*1227 FILLER_6_71
*1228 FILLER_6_79
*1229 FILLER_6_87
*1230 FILLER_6_89
*1231 FILLER_6_91
*1232 FILLER_6_99
*1233 FILLER_6_107
*1234 FILLER_6_115
*1235 FILLER_6_123
*1236 FILLER_6_131
*1237 FILLER_6_139
*1238 FILLER_6_147
*1239 FILLER_6_149
*1240 FILLER_6_151
*1241 FILLER_6_159
*1242 FILLER_6_167
*1243 FILLER_6_175
*1244 FILLER_6_183
*1245 FILLER_6_191
*1246 FILLER_6_199
*1247 FILLER_6_207
*1248 FILLER_6_209
*1249 FILLER_6_211
*1250 FILLER_6_219
*1251 FILLER_6_227
*1252 FILLER_6_235
*1253 FILLER_6_243
*1254 FILLER_6_251
*1255 FILLER_6_259
*1256 FILLER_6_267
*1257 FILLER_6_269
*1258 FILLER_6_271
*1259 FILLER_6_279
*1260 FILLER_6_287
*1261 FILLER_6_295
*1262 FILLER_6_303
*1263 FILLER_6_311
*1264 FILLER_6_319
*1265 FILLER_6_327
*1266 FILLER_6_329
*1267 FILLER_6_331
*1268 FILLER_6_339
*1269 FILLER_6_347
*1270 FILLER_6_355
*1271 FILLER_6_363
*1272 FILLER_6_371
*1273 FILLER_6_379
*1274 FILLER_6_387
*1275 FILLER_6_389
*1276 FILLER_6_391
*1277 FILLER_6_399
*1278 FILLER_6_407
*1279 FILLER_6_415
*1280 FILLER_7_0
*1281 FILLER_7_8
*1282 FILLER_7_16
*1283 FILLER_7_24
*1284 FILLER_7_32
*1285 FILLER_7_40
*1286 FILLER_7_48
*1287 FILLER_7_56
*1288 FILLER_7_61
*1289 FILLER_7_69
*1290 FILLER_7_77
*1291 FILLER_7_85
*1292 FILLER_7_93
*1293 FILLER_7_101
*1294 FILLER_7_109
*1295 FILLER_7_117
*1296 FILLER_7_119
*1297 FILLER_7_121
*1298 FILLER_7_129
*1299 FILLER_7_137
*1300 FILLER_7_145
*1301 FILLER_7_153
*1302 FILLER_7_161
*1303 FILLER_7_169
*1304 FILLER_7_177
*1305 FILLER_7_179
*1306 FILLER_7_181
*1307 FILLER_7_189
*1308 FILLER_7_197
*1309 FILLER_7_205
*1310 FILLER_7_213
*1311 FILLER_7_221
*1312 FILLER_7_229
*1313 FILLER_7_237
*1314 FILLER_7_239
*1315 FILLER_7_241
*1316 FILLER_7_249
*1317 FILLER_7_257
*1318 FILLER_7_265
*1319 FILLER_7_273
*1320 FILLER_7_281
*1321 FILLER_7_289
*1322 FILLER_7_297
*1323 FILLER_7_299
*1324 FILLER_7_301
*1325 FILLER_7_309
*1326 FILLER_7_317
*1327 FILLER_7_325
*1328 FILLER_7_333
*1329 FILLER_7_341
*1330 FILLER_7_349
*1331 FILLER_7_357
*1332 FILLER_7_359
*1333 FILLER_7_361
*1334 FILLER_7_369
*1335 FILLER_7_377
*1336 FILLER_7_385
*1337 FILLER_7_393
*1338 FILLER_7_401
*1339 FILLER_7_409
*1340 FILLER_7_413
*1341 FILLER_7_415
*1342 FILLER_8_0
*1343 FILLER_8_8
*1344 FILLER_8_16
*1345 FILLER_8_24
*1346 FILLER_8_28
*1347 FILLER_8_31
*1348 FILLER_8_39
*1349 FILLER_8_47
*1350 FILLER_8_55
*1351 FILLER_8_63
*1352 FILLER_8_71
*1353 FILLER_8_79
*1354 FILLER_8_87
*1355 FILLER_8_89
*1356 FILLER_8_91
*1357 FILLER_8_99
*1358 FILLER_8_107
*1359 FILLER_8_115
*1360 FILLER_8_123
*1361 FILLER_8_131
*1362 FILLER_8_139
*1363 FILLER_8_147
*1364 FILLER_8_149
*1365 FILLER_8_151
*1366 FILLER_8_159
*1367 FILLER_8_167
*1368 FILLER_8_175
*1369 FILLER_8_183
*1370 FILLER_8_191
*1371 FILLER_8_199
*1372 FILLER_8_207
*1373 FILLER_8_209
*1374 FILLER_8_211
*1375 FILLER_8_219
*1376 FILLER_8_227
*1377 FILLER_8_235
*1378 FILLER_8_243
*1379 FILLER_8_251
*1380 FILLER_8_259
*1381 FILLER_8_267
*1382 FILLER_8_269
*1383 FILLER_8_271
*1384 FILLER_8_279
*1385 FILLER_8_287
*1386 FILLER_8_295
*1387 FILLER_8_303
*1388 FILLER_8_311
*1389 FILLER_8_319
*1390 FILLER_8_327
*1391 FILLER_8_329
*1392 FILLER_8_331
*1393 FILLER_8_339
*1394 FILLER_8_347
*1395 FILLER_8_355
*1396 FILLER_8_363
*1397 FILLER_8_371
*1398 FILLER_8_379
*1399 FILLER_8_387
*1400 FILLER_8_389
*1401 FILLER_8_391
*1402 FILLER_8_399
*1403 FILLER_8_407
*1404 FILLER_8_415
*1405 FILLER_9_0
*1406 FILLER_9_8
*1407 FILLER_9_16
*1408 FILLER_9_24
*1409 FILLER_9_32
*1410 FILLER_9_40
*1411 FILLER_9_48
*1412 FILLER_9_56
*1413 FILLER_9_61
*1414 FILLER_9_69
*1415 FILLER_9_77
*1416 FILLER_9_85
*1417 FILLER_9_93
*1418 FILLER_9_101
*1419 FILLER_9_109
*1420 FILLER_9_117
*1421 FILLER_9_119
*1422 FILLER_9_121
*1423 FILLER_9_129
*1424 FILLER_9_137
*1425 FILLER_9_145
*1426 FILLER_9_153
*1427 FILLER_9_161
*1428 FILLER_9_169
*1429 FILLER_9_177
*1430 FILLER_9_179
*1431 FILLER_9_181
*1432 FILLER_9_189
*1433 FILLER_9_197
*1434 FILLER_9_205
*1435 FILLER_9_213
*1436 FILLER_9_221
*1437 FILLER_9_229
*1438 FILLER_9_237
*1439 FILLER_9_239
*1440 FILLER_9_241
*1441 FILLER_9_249
*1442 FILLER_9_257
*1443 FILLER_9_265
*1444 FILLER_9_273
*1445 FILLER_9_281
*1446 FILLER_9_289
*1447 FILLER_9_297
*1448 FILLER_9_299
*1449 FILLER_9_301
*1450 FILLER_9_309
*1451 FILLER_9_317
*1452 FILLER_9_325
*1453 FILLER_9_333
*1454 FILLER_9_341
*1455 FILLER_9_349
*1456 FILLER_9_357
*1457 FILLER_9_359
*1458 FILLER_9_361
*1459 FILLER_9_369
*1460 FILLER_9_377
*1461 FILLER_9_385
*1462 FILLER_9_393
*1463 FILLER_9_401
*1464 FILLER_9_409
*1465 FILLER_9_413
*1466 FILLER_9_415
*1467 FILLER_10_0
*1468 FILLER_10_8
*1469 FILLER_10_16
*1470 FILLER_10_24
*1471 FILLER_10_28
*1472 FILLER_10_31
*1473 FILLER_10_39
*1474 FILLER_10_47
*1475 FILLER_10_55
*1476 FILLER_10_63
*1477 FILLER_10_71
*1478 FILLER_10_79
*1479 FILLER_10_87
*1480 FILLER_10_89
*1481 FILLER_10_91
*1482 FILLER_10_99
*1483 FILLER_10_107