*SPEF "ieee 1481-1999"
*DESIGN "simon_game"
*DATE "08:04:15 Tuesday July 07, 2026"
*VENDOR "The OpenROAD Project"
*PROGRAM "OpenROAD"
*VERSION "26Q1-1392-g93cb34c5d4"
*DESIGN_FLOW "NAME_SCOPE LOCAL" "PIN_CAP NONE"
*DIVIDER /
*DELIMITER :
*BUS_DELIMITER []
*T_UNIT 1 NS
*C_UNIT 1 PF
*R_UNIT 1 OHM
*L_UNIT 1 HENRY

*NAME_MAP
*1 _0000_
*2 _0001_
*3 _0002_
*4 _0003_
*5 _0004_
*6 _0005_
*7 _0006_
*8 _0007_
*9 _0008_
*10 _0009_
*11 _0010_
*12 _0011_
*13 _0012_
*14 _0013_
*15 _0014_
*16 _0015_
*17 _0016_
*18 _0017_
*19 _0018_
*20 _0019_
*21 _0020_
*22 _0021_
*23 _0022_
*24 _0023_
*25 _0024_
*26 _0025_
*27 _0026_
*28 _0027_
*29 _0028_
*30 _0029_
*31 _0030_
*32 _0031_
*33 _0032_
*34 _0033_
*35 _0034_
*36 _0035_
*37 _0036_
*38 _0037_
*39 _0038_
*40 _0039_
*41 _0040_
*42 _0041_
*43 _0042_
*44 _0043_
*45 _0044_
*46 _0045_
*47 _0046_
*48 _0047_
*49 _0048_
*50 _0049_
*51 _0050_
*52 _0051_
*53 _0052_
*54 _0053_
*55 _0054_
*56 _0055_
*57 _0056_
*58 _0057_
*59 _0058_
*60 _0059_
*61 _0060_
*62 _0061_
*63 _0062_
*64 _0063_
*65 _0064_
*66 _0065_
*67 _0066_
*68 _0067_
*69 _0068_
*70 _0069_
*71 _0070_
*72 _0071_
*73 _0072_
*74 _0073_
*75 _0074_
*76 _0075_
*77 _0076_
*78 _0077_
*79 _0078_
*80 _0079_
*81 _0080_
*82 _0081_
*83 _0082_
*84 _0083_
*85 _0084_
*86 _0085_
*87 _0086_
*88 _0087_
*89 _0088_
*90 _0089_
*91 _0090_
*92 _0091_
*93 _0092_
*94 _0093_
*95 _0094_
*96 _0095_
*97 _0096_
*98 _0097_
*99 _0098_
*100 _0099_
*101 _0100_
*102 _0101_
*103 _0102_
*104 _0103_
*105 _0104_
*106 _0105_
*107 _0106_
*108 _0107_
*109 _0108_
*110 _0109_
*111 _0110_
*112 _0111_
*113 _0112_
*114 _0113_
*115 _0114_
*116 _0115_
*117 _0116_
*118 _0117_
*119 _0118_
*120 _0119_
*121 _0120_
*122 _0121_
*123 _0122_
*124 _0123_
*125 _0124_
*126 _0125_
*127 _0126_
*128 _0127_
*129 _0128_
*130 _0129_
*131 _0130_
*132 _0131_
*133 _0132_
*134 _0133_
*135 _0134_
*136 _0135_
*137 _0136_
*138 _0137_
*139 _0138_
*140 _0139_
*141 _0140_
*142 _0141_
*143 _0142_
*144 _0143_
*145 _0144_
*146 _0145_
*147 _0146_
*148 _0147_
*149 _0148_
*150 _0149_
*151 _0150_
*152 _0151_
*153 _0152_
*154 _0153_
*155 _0154_
*156 _0155_
*157 _0156_
*158 _0157_
*159 _0158_
*160 _0159_
*161 _0160_
*162 _0161_
*163 _0162_
*164 _0163_
*165 _0164_
*166 _0165_
*167 _0166_
*168 _0167_
*169 _0168_
*170 _0169_
*171 _0170_
*172 _0171_
*173 _0172_
*174 _0173_
*175 _0174_
*176 _0175_
*177 _0176_
*178 _0177_
*179 _0178_
*180 _0179_
*181 _0180_
*182 _0181_
*183 _0182_
*184 _0183_
*185 _0184_
*186 _0185_
*187 _0186_
*188 _0187_
*189 _0188_
*190 _0189_
*191 _0190_
*192 _0191_
*193 _0192_
*194 _0193_
*195 _0194_
*196 _0195_
*197 _0196_
*198 _0197_
*199 _0198_
*200 _0199_
*201 _0200_
*202 _0201_
*203 _0202_
*204 _0203_
*205 _0204_
*206 _0205_
*207 _0206_
*208 _0207_
*209 _0208_
*210 _0209_
*211 _0210_
*212 _0211_
*213 _0212_
*214 _0213_
*215 _0214_
*216 _0215_
*217 _0216_
*218 _0217_
*219 _0218_
*220 _0219_
*221 _0220_
*222 _0221_
*223 _0222_
*224 _0223_
*225 _0224_
*226 _0225_
*227 _0226_
*228 _0227_
*229 _0228_
*230 _0229_
*231 _0230_
*232 _0231_
*233 _0232_
*234 _0233_
*235 _0234_
*236 _0235_
*237 _0236_
*238 _0237_
*239 _0238_
*240 _0239_
*241 _0240_
*242 _0241_
*243 _0242_
*244 _0243_
*245 _0244_
*246 _0245_
*247 _0246_
*248 _0247_
*249 _0248_
*250 _0249_
*251 _0250_
*252 _0251_
*253 _0252_
*254 _0253_
*255 _0254_
*256 _0255_
*257 _0256_
*258 _0257_
*259 _0258_
*260 _0259_
*261 _0260_
*262 _0261_
*263 _0262_
*264 _0263_
*265 _0264_
*266 _0265_
*267 _0266_
*268 _0267_
*269 _0268_
*270 _0269_
*271 _0270_
*272 _0271_
*273 _0272_
*274 _0273_
*275 _0274_
*276 _0275_
*277 _0276_
*278 _0277_
*279 _0278_
*280 _0279_
*281 _0280_
*282 _0281_
*283 _0282_
*284 _0283_
*285 _0284_
*286 _0285_
*287 _0286_
*288 _0287_
*289 _0288_
*290 _0289_
*291 btn[2]
*292 _0291_
*293 btn[1]
*294 _0293_
*295 _0294_
*296 _0295_
*297 _0296_
*298 _0297_
*299 _0298_
*300 _0299_
*301 _0300_
*302 _0301_
*303 _0302_
*304 _0303_
*305 _0304_
*306 _0305_
*307 _0306_
*308 _0307_
*309 _0308_
*310 _0309_
*311 _0310_
*312 _0311_
*313 _0312_
*314 _0313_
*315 _0314_
*316 _0315_
*317 _0316_
*318 _0317_
*319 _0318_
*320 _0319_
*321 _0320_
*322 _0321_
*323 _0322_
*324 _0323_
*325 _0324_
*326 _0325_
*327 _0326_
*328 _0327_
*329 _0328_
*330 _0329_
*331 _0330_
*332 _0331_
*333 _0332_
*334 _0333_
*335 _0334_
*336 _0335_
*337 _0336_
*338 _0337_
*339 _0338_
*340 _0339_
*341 _0340_
*342 _0341_
*343 _0342_
*344 _0343_
*345 _0344_
*346 _0345_
*347 _0346_
*348 _0347_
*349 _0348_
*350 _0349_
*351 _0350_
*352 _0351_
*353 _0352_
*354 _0353_
*355 _0354_
*356 _0355_
*357 _0356_
*358 _0357_
*359 _0358_
*360 _0359_
*361 _0360_
*362 _0361_
*363 _0362_
*364 _0363_
*365 _0364_
*366 _0365_
*367 _0366_
*368 _0367_
*369 _0368_
*370 _0369_
*371 _0370_
*372 _0371_
*373 _0372_
*374 _0373_
*375 _0374_
*376 _0375_
*377 _0376_
*378 _0377_
*379 _0378_
*380 _0379_
*381 _0380_
*382 _0381_
*383 _0382_
*384 _0383_
*385 _0384_
*386 _0385_
*387 _0386_
*388 _0387_
*389 _0388_
*390 _0389_
*391 _0390_
*392 _0391_
*393 _0392_
*394 _0393_
*395 _0394_
*396 _0395_
*397 _0396_
*398 _0397_
*399 _0398_
*400 _0399_
*401 _0400_
*402 _0401_
*403 _0402_
*404 _0403_
*405 _0404_
*406 _0405_
*407 btn[0]
*408 _0407_
*409 _0408_
*410 _0409_
*411 _0410_
*412 _0411_
*413 _0412_
*414 _0413_
*415 _0414_
*416 _0415_
*417 _0416_
*418 _0417_
*419 _0418_
*420 _0419_
*421 _0420_
*422 _0421_
*423 _0422_
*424 _0423_
*425 _0424_
*426 _0425_
*427 _0426_
*428 _0427_
*429 _0428_
*430 _0429_
*431 _0430_
*432 _0431_
*433 _0432_
*434 _0433_
*435 _0434_
*436 _0435_
*437 _0436_
*438 _0437_
*439 _0438_
*440 _0439_
*441 _0440_
*442 _0441_
*443 _0442_
*444 _0443_
*445 _0444_
*446 _0445_
*447 _0446_
*448 _0447_
*449 _0448_
*450 _0449_
*451 _0450_
*452 _0451_
*453 _0452_
*454 _0453_
*455 _0454_
*456 _0455_
*457 _0456_
*458 _0457_
*459 _0458_
*460 _0459_
*461 _0460_
*462 _0461_
*463 _0462_
*464 _0463_
*465 _0464_
*466 _0465_
*467 _0466_
*468 _0467_
*469 _0468_
*470 _0469_
*471 _0470_
*472 _0471_
*473 _0472_
*474 _0473_
*475 _0474_
*476 _0475_
*477 _0476_
*478 _0477_
*479 _0478_
*480 _0479_
*481 _0480_
*482 _0481_
*483 _0482_
*484 _0483_
*485 _0484_
*486 _0485_
*487 _0486_
*488 _0487_
*489 _0488_
*490 clknet_4_12_0_clk
*491 clknet_4_11_0_clk
*492 clknet_4_10_0_clk
*493 _0492_
*494 clknet_4_9_0_clk
*495 clknet_4_8_0_clk
*496 _0495_
*497 clknet_4_7_0_clk
*498 _0497_
*499 _0498_
*500 _0499_
*501 clknet_4_6_0_clk
*502 clknet_4_5_0_clk
*503 _0502_
*504 _0503_
*505 clknet_4_4_0_clk
*506 _0505_
*507 _0506_
*508 _0507_
*509 _0508_
*510 _0509_
*511 _0510_
*512 clknet_4_3_0_clk
*513 clknet_4_2_0_clk
*514 _0513_
*515 _0514_
*516 _0515_
*517 _0516_
*518 _0517_
*519 _0518_
*520 _0519_
*521 _0520_
*522 _0521_
*523 clknet_4_1_0_clk
*524 clknet_4_0_0_clk
*525 net48
*526 net44
*527 _0526_
*528 _0527_
*529 _0528_
*530 _0529_
*531 _0530_
*532 _0531_
*533 _0532_
*534 _0533_
*535 _0534_
*536 _0535_
*537 _0536_
*538 _0537_
*539 _0538_
*540 _0539_
*541 _0540_
*542 _0541_
*543 _0542_
*544 _0543_
*545 _0544_
*546 _0545_
*547 net43
*548 net42
*549 _0548_
*550 _0549_
*551 net40
*552 _0551_
*553 _0552_
*554 _0553_
*555 net39
*556 net51
*557 _0556_
*558 _0557_
*559 _0558_
*560 _0559_
*561 _0560_
*562 _0561_
*563 _0562_
*564 _0563_
*565 _0564_
*566 _0565_
*567 _0566_
*568 _0567_
*569 _0568_
*570 _0569_
*571 _0570_
*572 _0571_
*573 _0572_
*574 _0573_
*575 _0574_
*576 _0575_
*577 _0576_
*578 _0577_
*579 _0578_
*580 net50
*581 net49
*582 _0581_
*583 _0582_
*584 _0583_
*585 _0584_
*586 _0585_
*587 _0586_
*588 _0587_
*589 _0588_
*590 _0589_
*591 _0590_
*592 _0591_
*593 _0592_
*594 _0593_
*595 _0594_
*596 _0595_
*597 _0596_
*598 _0597_
*599 _0598_
*600 _0599_
*601 net47
*602 net46
*603 _0602_
*604 _0603_
*605 _0604_
*606 _0605_
*607 _0606_
*608 _0607_
*609 _0608_
*610 net41
*611 _0610_
*612 clknet_0_clk
*613 _0612_
*614 _0613_
*615 _0614_
*616 net45
*617 _0616_
*618 _0617_
*619 sound
*620 _0619_
*621 segments[6]
*622 _0621_
*623 _0622_
*624 _0623_
*625 segments[5]
*626 segments[4]
*627 _0626_
*628 _0627_
*629 segments[3]
*630 segments[2]
*631 _0630_
*632 _0631_
*633 _0632_
*634 _0633_
*635 segments[1]
*636 _0635_
*637 _0636_
*638 _0637_
*639 _0638_
*640 _0639_
*641 _0640_
*642 segments[0]
*643 segment_digits[1]
*644 segment_digits[0]
*645 _0644_
*646 level[4]
*647 _0646_
*648 _0647_
*649 _0648_
*650 _0649_
*651 _0650_
*652 _0651_
*653 _0652_
*654 _0653_
*655 _0654_
*656 _0655_
*657 _0656_
*658 _0657_
*659 _0658_
*660 _0659_
*661 _0660_
*662 _0661_
*663 _0662_
*664 _0663_
*665 _0664_
*666 _0665_
*667 _0666_
*668 _0667_
*669 _0668_
*670 _0669_
*671 _0670_
*672 _0671_
*673 _0672_
*674 _0673_
*675 _0674_
*676 _0675_
*677 level[3]
*678 _0677_
*679 _0678_
*680 _0679_
*681 _0680_
*682 _0681_
*683 _0682_
*684 _0683_
*685 _0684_
*686 _0685_
*687 _0686_
*688 _0687_
*689 _0688_
*690 _0689_
*691 _0690_
*692 _0691_
*693 _0692_
*694 _0693_
*695 _0694_
*696 _0695_
*697 _0696_
*698 _0697_
*699 _0698_
*700 _0699_
*701 _0700_
*702 _0701_
*703 _0702_
*704 _0703_
*705 _0704_
*706 _0705_
*707 _0706_
*708 _0707_
*709 _0708_
*710 _0709_
*711 _0710_
*712 _0711_
*713 _0712_
*714 level[2]
*715 _0714_
*716 _0715_
*717 _0716_
*718 _0717_
*719 _0718_
*720 _0719_
*721 _0720_
*722 _0721_
*723 _0722_
*724 _0723_
*725 _0724_
*726 _0725_
*727 _0726_
*728 _0727_
*729 _0728_
*730 _0729_
*731 _0730_
*732 _0731_
*733 _0732_
*734 _0733_
*735 _0734_
*736 _0735_
*737 _0736_
*738 _0737_
*739 _0738_
*740 _0739_
*741 _0740_
*742 _0741_
*743 _0742_
*744 level[1]
*745 _0744_
*746 _0745_
*747 _0746_
*748 _0747_
*749 _0748_
*750 _0749_
*751 _0750_
*752 _0751_
*753 level[0]
*754 _0753_
*755 _0754_
*756 _0755_
*757 led[3]
*758 _0757_
*759 _0758_
*760 _0759_
*761 _0760_
*762 _0761_
*763 _0762_
*764 _0763_
*765 _0764_
*766 _0765_
*767 _0766_
*768 _0767_
*769 _0768_
*770 _0769_
*771 _0770_
*772 _0771_
*773 _0772_
*774 _0773_
*775 _0774_
*776 _0775_
*777 _0776_
*778 _0777_
*779 _0778_
*780 _0779_
*781 _0780_
*782 _0781_
*783 _0782_
*784 _0783_
*785 _0784_
*786 _0785_
*787 _0786_
*788 _0787_
*789 _0788_
*790 _0789_
*791 _0790_
*792 _0791_
*793 _0792_
*794 _0793_
*795 _0794_
*796 _0795_
*797 _0796_
*798 _0797_
*799 _0798_
*800 _0799_
*801 _0800_
*802 _0801_
*803 _0802_
*804 _0803_
*805 _0804_
*806 _0805_
*807 _0806_
*808 _0807_
*809 _0808_
*810 _0809_
*811 _0810_
*812 _0811_
*813 _0812_
*814 _0813_
*815 _0814_
*816 _0815_
*817 _0816_
*818 _0817_
*819 _0818_
*820 _0819_
*821 _0820_
*822 _0821_
*823 _0822_
*824 _0823_
*825 _0824_
*826 _0825_
*827 _0826_
*828 led[2]
*829 _0828_
*830 _0829_
*831 _0830_
*832 _0831_
*833 led[1]
*834 led[0]
*835 _0834_
*836 _0835_
*837 _0836_
*838 _0837_
*839 _0838_
*840 _0839_
*841 _0840_
*842 _0841_
*843 _0842_
*844 _0843_
*845 _0844_
*846 _0845_
*847 _0846_
*848 _0847_
*849 _0848_
*850 _0849_
*851 _0850_
*852 _0851_
*853 _0852_
*854 _0853_
*855 _0854_
*856 _0855_
*857 _0856_
*858 _0857_
*859 _0858_
*860 _0859_
*861 _0860_
*862 _0861_
*863 _0862_
*864 _0863_
*865 _0864_
*866 _0865_
*867 _0866_
*868 _0867_
*869 _0868_
*870 _0869_
*871 _0870_
*872 _0871_
*873 _0872_
*874 _0873_
*875 _0874_
*876 _0875_
*877 _0876_
*878 _0877_
*879 _0878_
*880 _0879_
*881 _0880_
*882 _0881_
*883 _0882_
*884 _0883_
*885 _0884_
*886 _0885_
*887 _0886_
*888 _0887_
*889 _0888_
*890 _0889_
*891 _0890_
*892 _0891_
*893 _0892_
*894 game_over
*895 _0894_
*896 _0895_
*897 _0896_
*898 _0897_
*899 _0898_
*900 _0899_
*901 _0900_
*902 _0901_
*903 _0902_
*904 _0903_
*905 dbg_state[2]
*906 _0905_
*907 _0906_
*908 _0907_
*909 _0908_
*910 _0909_
*911 _0910_
*912 _0911_
*913 dbg_state[1]
*914 _0913_
*915 _0914_
*916 _0915_
*917 _0916_
*918 _0917_
*919 _0918_
*920 _0919_
*921 _0920_
*922 _0921_
*923 _0922_
*924 _0923_
*925 _0924_
*926 _0925_
*927 _0926_
*928 _0927_
*929 _0928_
*930 _0929_
*931 _0930_
*932 _0931_
*933 _0932_
*934 _0933_
*935 _0934_
*936 _0935_
*937 _0936_
*938 _0937_
*939 _0938_
*940 _0939_
*941 _0940_
*942 _0941_
*943 dbg_state[0]
*944 _0943_
*945 _0944_
*946 _0945_
*947 _0946_
*948 _0947_
*949 _0948_
*950 _0949_
*951 _0950_
*952 _0951_
*953 _0952_
*954 _0953_
*955 _0954_
*956 _0955_
*957 _0956_
*958 _0957_
*959 rst_n
*960 _0959_
*961 btn[3]
*962 _0961_
*963 _0962_
*964 _0963_
*965 _0964_
*966 _0965_
*967 _0966_
*968 _0967_
*969 _0968_
*970 _0969_
*971 _0970_
*972 _0971_
*973 _0972_
*974 _0973_
*975 _0974_
*976 _0975_
*977 _0976_
*978 _0977_
*979 _0978_
*980 _0979_
*981 _0980_
*982 net1
*983 net2
*984 net3
*985 net4
*986 clk
*987 core\.millis_counter\[0\]
*988 core\.millis_counter\[1\]
*989 core\.millis_counter\[2\]
*990 core\.millis_counter\[3\]
*991 core\.millis_counter\[4\]
*992 core\.millis_counter\[5\]
*993 core\.millis_counter\[6\]
*994 core\.millis_counter\[7\]
*995 core\.millis_counter\[8\]
*996 core\.millis_counter\[9\]
*997 core\.next_random\[0\]
*998 core\.next_random\[1\]
*999 core\.play1\.freq\[0\]
*1000 core\.play1\.freq\[1\]
*1001 core\.play1\.freq\[2\]
*1002 core\.play1\.freq\[3\]
*1003 core\.play1\.freq\[4\]
*1004 core\.play1\.freq\[5\]
*1005 core\.play1\.freq\[6\]
*1006 core\.play1\.freq\[7\]
*1007 core\.play1\.freq\[8\]
*1008 core\.play1\.freq\[9\]
*1009 core\.play1\.tick_counter\[0\]
*1010 core\.play1\.tick_counter\[10\]
*1011 core\.play1\.tick_counter\[11\]
*1012 core\.play1\.tick_counter\[12\]
*1013 core\.play1\.tick_counter\[13\]
*1014 core\.play1\.tick_counter\[14\]
*1015 core\.play1\.tick_counter\[15\]
*1016 core\.play1\.tick_counter\[16\]
*1017 core\.play1\.tick_counter\[17\]
*1018 core\.play1\.tick_counter\[18\]
*1019 core\.play1\.tick_counter\[19\]
*1020 core\.play1\.tick_counter\[1\]
*1021 core\.play1\.tick_counter\[20\]
*1022 core\.play1\.tick_counter\[21\]
*1023 core\.play1\.tick_counter\[22\]
*1024 core\.play1\.tick_counter\[23\]
*1025 core\.play1\.tick_counter\[24\]
*1026 core\.play1\.tick_counter\[25\]
*1027 core\.play1\.tick_counter\[26\]
*1028 core\.play1\.tick_counter\[27\]
*1029 core\.play1\.tick_counter\[28\]
*1030 core\.play1\.tick_counter\[29\]
*1031 core\.play1\.tick_counter\[2\]
*1032 core\.play1\.tick_counter\[30\]
*1033 core\.play1\.tick_counter\[31\]
*1034 core\.play1\.tick_counter\[3\]
*1035 core\.play1\.tick_counter\[4\]
*1036 core\.play1\.tick_counter\[5\]
*1037 core\.play1\.tick_counter\[6\]
*1038 core\.play1\.tick_counter\[7\]
*1039 core\.play1\.tick_counter\[8\]
*1040 core\.play1\.tick_counter\[9\]
*1041 core\.score1\.active_digit
*1042 core\.score1\.ena
*1043 core\.score1\.inc
*1044 core\.score1\.ones\[0\]
*1045 core\.score1\.ones\[1\]
*1046 core\.score1\.ones\[2\]
*1047 core\.score1\.ones\[3\]
*1048 core\.score1\.tens\[0\]
*1049 core\.score1\.tens\[1\]
*1050 core\.score1\.tens\[2\]
*1051 core\.score1\.tens\[3\]
*1052 core\.score_rst
*1053 core\.seq\[0\]\[0\]
*1054 core\.seq\[0\]\[1\]
*1055 core\.seq\[10\]\[0\]
*1056 core\.seq\[10\]\[1\]
*1057 core\.seq\[11\]\[0\]
*1058 core\.seq\[11\]\[1\]
*1059 core\.seq\[12\]\[0\]
*1060 core\.seq\[12\]\[1\]
*1061 core\.seq\[13\]\[0\]
*1062 core\.seq\[13\]\[1\]
*1063 core\.seq\[14\]\[0\]
*1064 core\.seq\[14\]\[1\]
*1065 core\.seq\[15\]\[0\]
*1066 core\.seq\[15\]\[1\]
*1067 core\.seq\[16\]\[0\]
*1068 core\.seq\[16\]\[1\]
*1069 core\.seq\[17\]\[0\]
*1070 core\.seq\[17\]\[1\]
*1071 core\.seq\[18\]\[0\]
*1072 core\.seq\[18\]\[1\]
*1073 core\.seq\[19\]\[0\]
*1074 core\.seq\[19\]\[1\]
*1075 core\.seq\[1\]\[0\]
*1076 core\.seq\[1\]\[1\]
*1077 core\.seq\[20\]\[0\]
*1078 core\.seq\[20\]\[1\]
*1079 core\.seq\[21\]\[0\]
*1080 core\.seq\[21\]\[1\]
*1081 core\.seq\[22\]\[0\]
*1082 core\.seq\[22\]\[1\]
*1083 core\.seq\[23\]\[0\]
*1084 core\.seq\[23\]\[1\]
*1085 core\.seq\[24\]\[0\]
*1086 core\.seq\[24\]\[1\]
*1087 core\.seq\[25\]\[0\]
*1088 core\.seq\[25\]\[1\]
*1089 core\.seq\[26\]\[0\]
*1090 core\.seq\[26\]\[1\]
*1091 core\.seq\[27\]\[0\]
*1092 core\.seq\[27\]\[1\]
*1093 core\.seq\[28\]\[0\]
*1094 core\.seq\[28\]\[1\]
*1095 core\.seq\[29\]\[0\]
*1096 core\.seq\[29\]\[1\]
*1097 core\.seq\[2\]\[0\]
*1098 core\.seq\[2\]\[1\]
*1099 core\.seq\[30\]\[0\]
*1100 core\.seq\[30\]\[1\]
*1101 core\.seq\[31\]\[0\]
*1102 core\.seq\[31\]\[1\]
*1103 core\.seq\[3\]\[0\]
*1104 core\.seq\[3\]\[1\]
*1105 core\.seq\[4\]\[0\]
*1106 core\.seq\[4\]\[1\]
*1107 core\.seq\[5\]\[0\]
*1108 core\.seq\[5\]\[1\]
*1109 core\.seq\[6\]\[0\]
*1110 core\.seq\[6\]\[1\]
*1111 core\.seq\[7\]\[0\]
*1112 core\.seq\[7\]\[1\]
*1113 core\.seq\[8\]\[0\]
*1114 core\.seq\[8\]\[1\]
*1115 core\.seq\[9\]\[0\]
*1116 core\.seq\[9\]\[1\]
*1117 core\.seq_counter\[0\]
*1118 core\.seq_counter\[1\]
*1119 core\.seq_counter\[2\]
*1120 core\.seq_counter\[3\]
*1121 core\.seq_counter\[4\]
*1122 core\.tick_counter\[0\]
*1123 core\.tick_counter\[10\]
*1124 core\.tick_counter\[11\]
*1125 core\.tick_counter\[12\]
*1126 core\.tick_counter\[13\]
*1127 core\.tick_counter\[14\]
*1128 core\.tick_counter\[15\]
*1129 core\.tick_counter\[1\]
*1130 core\.tick_counter\[2\]
*1131 core\.tick_counter\[3\]
*1132 core\.tick_counter\[4\]
*1133 core\.tick_counter\[5\]
*1134 core\.tick_counter\[6\]
*1135 core\.tick_counter\[7\]
*1136 core\.tick_counter\[8\]
*1137 core\.tick_counter\[9\]
*1138 core\.tone_sequence_counter\[0\]
*1139 core\.tone_sequence_counter\[1\]
*1140 core\.tone_sequence_counter\[2\]
*1141 core\.user_input\[0\]
*1142 core\.user_input\[1\]
*1143 net6
*1144 net7
*1145 net8
*1146 net9
*1147 net10
*1148 net11
*1149 net12
*1150 net13
*1151 net14
*1152 net15
*1153 net16
*1154 net17
*1155 net18
*1156 net5
*1157 net19
*1158 net20
*1159 net21
*1160 net22
*1161 net23
*1162 net24
*1163 net25
*1164 net26
*1165 net27
*1166 net28
*1169 clknet_4_13_0_clk
*1170 clknet_4_14_0_clk
*1171 clknet_4_15_0_clk
*1172 _0981_
*1173 clkbuf_4_12_0_clk
*1174 clkbuf_4_11_0_clk
*1175 clkbuf_4_10_0_clk
*1176 _0985_
*1177 clkbuf_4_9_0_clk
*1178 clkbuf_4_8_0_clk
*1179 _0988_
*1180 clkbuf_4_7_0_clk
*1181 _0990_
*1182 _0991_
*1183 _0992_
*1184 clkbuf_4_6_0_clk
*1185 clkbuf_4_5_0_clk
*1186 _0995_
*1187 _0996_
*1188 _0997_
*1189 _0998_
*1190 clkbuf_4_4_0_clk
*1191 _1000_
*1192 _1001_
*1193 _1002_
*1194 _1003_
*1195 _1004_
*1196 _1005_
*1197 _1006_
*1198 _1007_
*1199 _1008_
*1200 _1009_
*1201 _1010_
*1202 _1011_
*1203 _1012_
*1204 _1013_
*1205 _1014_
*1206 clkbuf_4_3_0_clk
*1207 clkbuf_4_2_0_clk
*1208 _1017_
*1209 _1018_
*1210 _1019_
*1211 _1020_
*1212 _1021_
*1213 _1022_
*1214 _1023_
*1215 _1024_
*1216 _1025_
*1217 _1026_
*1218 _1027_
*1219 _1028_
*1220 _1029_
*1221 _1030_
*1222 _1031_
*1223 _1032_
*1224 _1033_
*1225 _1034_
*1226 _1035_
*1227 _1036_
*1228 _1037_
*1229 _1038_
*1230 _1039_
*1231 _1040_
*1232 _1041_
*1233 _1042_
*1234 _1043_
*1235 _1044_
*1236 _1045_
*1237 _1046_
*1238 clkbuf_4_1_0_clk
*1239 clkbuf_4_0_0_clk
*1240 place48
*1241 place44
*1242 _1051_
*1243 _1052_
*1244 _1053_
*1245 _1054_
*1246 _1055_
*1247 _1056_
*1248 _1057_
*1249 _1058_
*1250 _1059_
*1251 _1060_
*1252 _1061_
*1253 _1062_
*1254 _1063_
*1255 _1064_
*1256 _1065_
*1257 _1066_
*1258 _1067_
*1259 _1068_
*1260 _1069_
*1261 _1070_
*1262 _1071_
*1263 _1072_
*1264 _1073_
*1265 _1074_
*1266 place43
*1267 place42
*1268 _1077_
*1269 _1078_
*1270 place40
*1271 _1080_
*1272 _1081_
*1273 _1082_
*1274 place39
*1275 _1084_
*1276 place51
*1277 _1086_
*1278 _1087_
*1279 _1088_
*1280 _1089_
*1281 _1090_
*1282 _1091_
*1283 _1092_
*1284 _1093_
*1285 _1094_
*1286 _1095_
*1287 _1096_
*1288 _1097_
*1289 _1098_
*1290 _1099_
*1291 _1100_
*1292 _1101_
*1293 _1102_
*1294 _1103_
*1295 _1104_
*1296 _1105_
*1297 _1106_
*1298 _1107_
*1299 _1108_
*1300 _1109_
*1301 _1110_
*1302 place50
*1303 place49
*1304 _1113_
*1305 _1114_
*1306 _1115_
*1307 _1116_
*1308 _1117_
*1309 _1118_
*1310 _1119_
*1311 _1120_
*1312 _1121_
*1313 _1122_
*1314 _1123_
*1315 _1124_
*1316 _1125_
*1317 _1126_
*1318 _1127_
*1319 _1128_
*1320 _1129_
*1321 _1130_
*1322 _1131_
*1323 _1132_
*1324 _1133_
*1325 _1134_
*1326 _1135_
*1327 _1136_
*1328 _1137_
*1329 _1138_
*1330 place47
*1331 place46
*1332 _1141_
*1333 _1142_
*1334 _1143_
*1335 _1144_
*1336 _1145_
*1337 _1146_
*1338 _1147_
*1339 _1148_
*1340 _1149_
*1341 _1150_
*1342 _1151_
*1343 _1152_
*1344 _1153_
*1345 _1154_
*1346 _1155_
*1347 _1156_
*1348 place41
*1349 _1158_
*1350 clkbuf_0_clk
*1351 _1160_
*1352 _1161_
*1353 _1162_
*1354 _1163_
*1355 _1164_
*1356 _1165_
*1357 _1166_
*1358 _1167_
*1359 _1168_
*1360 _1169_
*1361 _1170_
*1362 _1171_
*1363 place45
*1364 _1173_
*1365 _1174_
*1366 output28
*1367 _1176_
*1368 output27
*1369 _1178_
*1370 _1179_
*1371 _1180_
*1372 output26
*1373 output25
*1374 _1183_
*1375 _1184_
*1376 output24
*1377 output23
*1378 _1187_
*1379 _1188_
*1380 _1189_
*1381 _1190_
*1382 output22
*1383 _1192_
*1384 _1193_
*1385 _1194_
*1386 _1195_
*1387 _1196_
*1388 _1197_
*1389 output21
*1390 output20
*1391 output19
*1392 _1201_
*1393 _1202_
*1394 output18
*1395 _1204_
*1396 _1205_
*1397 _1206_
*1398 _1207_
*1399 _1208_
*1400 _1209_
*1401 _1210_
*1402 _1211_
*1403 _1212_
*1404 _1213_
*1405 _1214_
*1406 _1215_
*1407 _1216_
*1408 _1217_
*1409 _1218_
*1410 _1219_
*1411 _1220_
*1412 _1221_
*1413 _1222_
*1414 _1223_
*1415 _1224_
*1416 _1225_
*1417 _1226_
*1418 _1227_
*1419 _1228_
*1420 _1229_
*1421 _1230_
*1422 _1231_
*1423 _1232_
*1424 _1233_
*1425 _1234_
*1426 _1235_
*1427 _1236_
*1428 _1237_
*1429 _1238_
*1430 _1239_
*1431 _1240_
*1432 _1241_
*1433 _1242_
*1434 output17
*1435 _1244_
*1436 _1245_
*1437 _1246_
*1438 _1247_
*1439 _1248_
*1440 _1249_
*1441 _1250_
*1442 _1251_
*1443 _1252_
*1444 _1253_
*1445 _1254_
*1446 _1255_
*1447 _1256_
*1448 _1257_
*1449 _1258_
*1450 _1259_
*1451 _1260_
*1452 _1261_
*1453 _1262_
*1454 _1263_
*1455 _1264_
*1456 _1265_
*1457 _1266_
*1458 _1267_
*1459 _1268_
*1460 _1269_
*1461 _1270_
*1462 _1271_
*1463 _1272_
*1464 _1273_
*1465 _1274_
*1466 _1275_
*1467 _1276_
*1468 _1277_
*1469 _1278_
*1470 _1279_
*1471 _1280_
*1472 _1281_
*1473 _1282_
*1474 _1283_
*1475 _1284_
*1476 _1285_
*1477 _1286_
*1478 _1287_
*1479 _1288_
*1480 _1289_
*1481 _1290_
*1482 _1291_
*1483 _1292_
*1484 _1293_
*1485 _1294_
*1486 _1295_
*1487 output16
*1488 _1297_
*1489 _1298_
*1490 _1299_
*1491 _1300_
*1492 _1301_
*1493 _1302_
*1494 _1303_
*1495 _1304_
*1496 _1305_
*1497 _1306_
*1498 _1307_
*1499 _1308_
*1500 _1309_
*1501 _1310_
*1502 _1311_
*1503 _1312_
*1504 _1313_
*1505 _1314_
*1506 _1315_
*1507 _1316_
*1508 _1317_
*1509 _1318_
*1510 _1319_
*1511 _1320_
*1512 _1321_
*1513 _1322_
*1514 _1323_
*1515 _1324_
*1516 _1325_
*1517 output15
*1518 _1327_
*1519 _1328_
*1520 _1329_
*1521 _1330_
*1522 _1331_
*1523 _1332_
*1524 _1333_
*1525 _1334_
*1526 _1335_
*1527 _1336_
*1528 output14
*1529 _1338_
*1530 _1339_
*1531 _1340_
*1532 _1341_
*1533 output13
*1534 _1343_
*1535 _1344_
*1536 _1345_
*1537 _1346_
*1538 _1347_
*1539 _1348_
*1540 _1349_
*1541 _1350_
*1542 _1351_
*1543 _1352_
*1544 _1353_
*1545 _1354_
*1546 _1355_
*1547 _1356_
*1548 _1357_
*1549 _1358_
*1550 _1359_
*1551 _1360_
*1552 _1361_
*1553 _1362_
*1554 _1363_
*1555 _1364_
*1556 _1365_
*1557 _1366_
*1558 _1367_
*1559 _1368_
*1560 _1369_
*1561 _1370_
*1562 _1371_
*1563 _1372_
*1564 _1373_
*1565 _1374_
*1566 _1375_
*1567 _1376_
*1568 _1377_
*1569 _1378_
*1570 _1379_
*1571 _1380_
*1572 _1381_
*1573 _1382_
*1574 _1383_
*1575 _1384_
*1576 _1385_
*1577 _1386_
*1578 _1387_
*1579 _1388_
*1580 _1389_
*1581 _1390_
*1582 _1391_
*1583 _1392_
*1584 _1393_
*1585 _1394_
*1586 _1395_
*1587 _1396_
*1588 _1397_
*1589 _1398_
*1590 _1399_
*1591 _1400_
*1592 _1401_
*1593 _1402_
*1594 _1403_
*1595 _1404_
*1596 _1405_
*1597 _1406_
*1598 _1407_
*1599 _1408_
*1600 _1409_
*1601 _1410_
*1602 _1411_
*1603 _1412_
*1604 _1413_
*1605 _1414_
*1606 _1415_
*1607 _1416_
*1608 _1417_
*1609 _1418_
*1610 _1419_
*1611 _1420_
*1612 _1421_
*1613 _1422_
*1614 _1423_
*1615 _1424_
*1616 _1425_
*1617 _1426_
*1618 _1427_
*1619 _1428_
*1620 _1429_
*1621 _1430_
*1622 output12
*1623 _1432_
*1624 _1433_
*1625 _1434_
*1626 _1435_
*1627 _1436_
*1628 output11
*1629 output10
*1630 _1439_
*1631 _1440_
*1632 _1441_
*1633 _1442_
*1634 _1443_
*1635 _1444_
*1636 _1445_
*1637 _1446_
*1638 _1447_
*1639 _1448_
*1640 _1449_
*1641 _1450_
*1642 _1451_
*1643 _1452_
*1644 _1453_
*1645 _1454_
*1646 _1455_
*1647 _1456_
*1648 _1457_
*1649 _1458_
*1650 _1459_
*1651 _1460_
*1652 _1461_
*1653 _1462_
*1654 _1463_
*1655 _1464_
*1656 _1465_
*1657 _1466_
*1658 _1467_
*1659 _1468_
*1660 _1469_
*1661 _1470_
*1662 _1471_
*1663 _1472_
*1664 _1473_
*1665 _1474_
*1666 _1475_
*1667 _1476_
*1668 _1477_
*1669 _1478_
*1670 _1479_
*1671 _1480_
*1672 _1481_
*1673 _1482_
*1674 _1483_
*1675 _1484_
*1676 _1485_
*1677 _1486_
*1678 _1487_
*1679 _1488_
*1680 _1489_
*1681 _1490_
*1682 _1491_
*1683 _1492_
*1684 _1493_
*1685 _1494_
*1686 _1495_
*1687 _1496_
*1688 _1497_
*1689 _1498_
*1690 output9
*1691 _1500_
*1692 _1501_
*1693 _1502_
*1694 _1503_
*1695 _1504_
*1696 _1505_
*1697 _1506_
*1698 _1507_
*1699 _1508_
*1700 _1509_
*1701 _1510_
*1702 output8
*1703 _1512_
*1704 _1513_
*1705 _1514_
*1706 _1515_
*1707 _1516_
*1708 _1517_
*1709 _1518_
*1710 _1519_
*1711 output7
*1712 _1521_
*1713 _1522_
*1714 _1523_
*1715 _1524_
*1716 _1525_
*1717 _1526_
*1718 _1527_
*1719 _1528_
*1720 _1529_
*1721 _1530_
*1722 _1531_
*1723 _1532_
*1724 _1533_
*1725 _1534_
*1726 _1535_
*1727 _1536_
*1728 _1537_
*1729 _1538_
*1730 _1539_
*1731 _1540_
*1732 _1541_
*1733 _1542_
*1734 _1543_
*1735 _1544_
*1736 _1545_
*1737 _1546_
*1738 _1547_
*1739 _1548_
*1740 _1549_
*1741 _1550_
*1742 _1551_
*1743 _1552_
*1744 output6
*1745 _1554_
*1746 _1555_
*1747 _1556_
*1748 _1557_
*1749 _1558_
*1750 _1559_
*1751 _1560_
*1752 _1561_
*1753 _1562_
*1754 _1563_
*1755 _1564_
*1756 _1565_
*1757 _1566_
*1758 _1567_
*1759 _1568_
*1760 _1569_
*1761 input5
*1762 _1571_
*1763 _1572_
*1764 input4
*1765 _1574_
*1766 _1575_
*1767 _1576_
*1768 _1577_
*1769 _1578_
*1770 _1579_
*1771 _1580_
*1772 _1581_
*1773 _1582_
*1774 _1583_
*1775 _1584_
*1776 _1585_
*1777 _1586_
*1778 _1587_
*1779 _1588_
*1780 _1589_
*1781 _1590_
*1782 _1591_
*1783 _1592_
*1784 _1593_
*1785 _1594_
*1786 _1595_
*1787 _1596_
*1788 _1597_
*1789 _1598_
*1790 _1599_
*1791 _1600_
*1792 _1601_
*1793 _1602_
*1794 _1603_
*1795 _1604_
*1796 _1605_
*1797 _1606_
*1798 _1607_
*1799 _1608_
*1800 _1609_
*1801 _1610_
*1802 _1611_
*1803 _1612_
*1804 _1613_
*1805 _1614_
*1806 _1615_
*1807 _1616_
*1808 _1617_
*1809 _1618_
*1810 _1619_
*1811 _1620_
*1812 _1621_
*1813 _1622_
*1814 _1623_
*1815 _1624_
*1816 _1625_
*1817 _1626_
*1818 _1627_
*1819 _1628_
*1820 _1629_
*1821 _1630_
*1822 _1631_
*1823 _1632_
*1824 _1633_
*1825 _1634_
*1826 _1635_
*1827 _1636_
*1828 _1637_
*1829 _1638_
*1830 _1639_
*1831 _1640_
*1832 _1641_
*1833 _1642_
*1834 _1643_
*1835 _1644_
*1836 _1645_
*1837 _1646_
*1838 _1647_
*1839 _1648_
*1840 _1649_
*1841 _1650_
*1842 _1651_
*1843 _1652_
*1844 input3
*1845 _1654_
*1846 input2
*1847 _1656_
*1848 _1657_
*1849 _1658_
*1850 _1659_
*1851 _1660_
*1852 _1661_
*1853 _1662_
*1854 _1663_
*1855 _1664_
*1856 _1665_
*1857 _1666_
*1858 _1667_
*1859 _1668_
*1860 _1669_
*1861 _1670_
*1862 _1671_
*1863 _1672_
*1864 _1673_
*1865 _1674_
*1866 _1675_
*1867 _1676_
*1868 _1677_
*1869 _1678_
*1870 _1679_
*1871 _1680_
*1872 _1681_
*1873 _1682_
*1874 _1683_
*1875 _1684_
*1876 _1685_
*1877 _1686_
*1878 _1687_
*1879 _1688_
*1880 _1689_
*1881 _1690_
*1882 _1691_
*1883 _1692_
*1884 _1693_
*1885 _1694_
*1886 _1695_
*1887 _1696_
*1888 _1697_
*1889 _1698_
*1890 _1699_
*1891 _1700_
*1892 _1701_
*1893 _1702_
*1894 _1703_
*1895 _1704_
*1896 _1705_
*1897 _1706_
*1898 _1707_
*1899 _1708_
*1900 _1709_
*1901 _1710_
*1902 _1711_
*1903 _1712_
*1904 _1713_
*1905 _1714_
*1906 _1715_
*1907 _1716_
*1908 _1717_
*1909 _1718_
*1910 _1719_
*1911 _1720_
*1912 _1721_
*1913 _1722_
*1914 _1723_
*1915 _1724_
*1916 _1725_
*1917 _1726_
*1918 _1727_
*1919 _1728_
*1920 _1729_
*1921 _1730_
*1922 _1731_
*1923 _1732_
*1924 _1733_
*1925 _1734_
*1926 _1735_
*1927 _1736_
*1928 _1737_
*1929 _1738_
*1930 _1739_
*1931 _1740_
*1932 _1741_
*1933 _1742_
*1934 _1743_
*1935 _1744_
*1936 _1745_
*1937 _1746_
*1938 _1747_
*1939 _1748_
*1940 _1749_
*1941 _1750_
*1942 _1751_
*1943 _1752_
*1944 _1753_
*1945 _1754_
*1946 _1755_
*1947 _1756_
*1948 _1757_
*1949 _1758_
*1950 _1759_
*1951 _1760_
*1952 _1761_
*1953 _1762_
*1954 _1763_
*1955 _1764_
*1956 _1765_
*1957 _1766_
*1958 _1767_
*1959 _1768_
*1960 _1769_
*1961 _1770_
*1962 _1771_
*1963 _1772_
*1964 _1773_
*1965 _1774_
*1966 _1775_
*1967 _1776_
*1968 _1777_
*1969 _1778_
*1970 _1779_
*1971 _1780_
*1972 _1781_
*1973 _1782_
*1974 _1783_
*1975 _1784_
*1976 _1785_
*1977 _1786_
*1978 _1787_
*1979 _1788_
*1980 _1789_
*1981 _1790_
*1982 _1791_
*1983 input1
*1984 _1793_
*1985 _1794_
*1986 _1795_
*1987 _1796_
*1988 _1797_
*1989 _1798_
*1990 _1799_
*1991 _1800_
*1992 _1801_
*1993 _1802_
*1994 _1803_
*1995 _1804_
*1996 _1805_
*1997 _1806_
*1998 _1807_
*1999 _1808_
*2000 _1809_
*2001 _1810_
*2002 _1811_
*2003 _1812_
*2004 _1813_
*2005 _1814_
*2006 _1815_
*2007 _1816_
*2008 _1817_
*2009 _1818_
*2010 _1819_
*2011 _1820_
*2012 _1821_
*2013 _1822_
*2014 _1823_
*2015 _1824_
*2016 _1825_
*2017 _1826_
*2018 _1827_
*2019 _1828_
*2020 _1829_
*2021 _1830_
*2022 _1831_
*2023 _1832_
*2024 _1833_
*2025 _1834_
*2026 _1835_
*2027 _1836_
*2028 _1837_
*2029 _1838_
*2030 _1839_
*2031 _1840_
*2032 _1841_
*2033 _1842_
*2034 _1843_
*2035 _1844_
*2036 _1845_
*2037 _1846_
*2038 _1847_
*2039 _1848_
*2040 _1849_
*2041 _1850_
*2042 _1851_
*2043 _1852_
*2044 _1853_
*2045 _1854_
*2046 _1855_
*2047 _1856_
*2048 _1857_
*2049 _1858_
*2050 _1859_
*2051 _1860_
*2052 _1861_
*2053 _1862_
*2054 _1863_
*2055 _1864_
*2056 _1865_
*2057 _1866_
*2058 _1867_
*2059 _1868_
*2060 _1869_
*2061 _1870_
*2062 _1871_
*2063 _1872_
*2064 _1873_
*2065 _1874_
*2066 _1875_
*2067 _1876_
*2068 _1877_
*2069 _1878_
*2070 _1879_
*2071 _1880_
*2072 _1881_
*2073 _1882_
*2074 _1883_
*2075 _1884_
*2076 _1885_
*2077 _1886_
*2078 _1887_
*2079 _1888_
*2080 _1889_
*2081 _1890_
*2082 _1891_
*2083 _1892_
*2084 _1893_
*2085 _1894_
*2086 _1895_
*2087 _1896_
*2088 _1897_
*2089 _1898_
*2090 _1899_
*2091 _1900_
*2092 _1901_
*2093 _1902_
*2094 _1903_
*2095 _1904_
*2096 _1905_
*2097 _1906_
*2098 _1907_
*2099 _1908_
*2100 _1909_
*2101 _1910_
*2102 _1911_
*2103 _1912_
*2104 _1913_
*2105 _1914_
*2106 _1915_
*2107 _1916_
*2108 _1917_
*2109 _1918_
*2110 _1919_
*2111 _1920_
*2112 _1921_
*2113 _1922_
*2114 _1923_
*2115 _1924_
*2116 _1925_
*2117 _1926_
*2118 _1927_
*2119 core\.led\[0\]\$_SDFFE_PN0P_
*2120 core\.led\[1\]\$_SDFFE_PN0P_
*2121 core\.led\[2\]\$_SDFFE_PN0P_
*2122 core\.led\[3\]\$_SDFFE_PN0P_