*SPEF "ieee 1481-1999"
*DESIGN "alu4"
*DATE "07:54:02 Tuesday July 07, 2026"
*VENDOR "The OpenROAD Project"
*PROGRAM "OpenROAD"
*VERSION "26Q1-1392-g93cb34c5d4"
*DESIGN_FLOW "NAME_SCOPE LOCAL" "PIN_CAP NONE"
*DIVIDER /
*DELIMITER :
*BUS_DELIMITER []
*T_UNIT 1 NS
*C_UNIT 1 PF
*R_UNIT 1 OHM
*L_UNIT 1 HENRY

*NAME_MAP
*1 _000_
*2 _001_
*3 _002_
*4 _003_
*5 _004_
*6 _005_
*7 _006_
*8 _007_
*9 _008_
*10 _009_
*11 _010_
*12 _011_
*13 _012_
*14 _013_
*15 _014_
*16 _015_
*17 _016_
*18 _017_
*19 _018_
*20 _019_
*21 _020_
*22 _021_
*23 _022_
*24 _023_
*25 _024_
*26 _025_
*27 _026_
*28 _027_
*29 _028_
*30 _029_
*31 _030_
*32 _031_
*33 _032_
*34 _033_
*35 _034_
*36 _035_
*37 _036_
*38 _037_
*39 _038_
*40 _039_
*41 _040_
*42 _041_
*43 _042_
*44 _043_
*45 _044_
*46 _045_
*47 _046_
*48 _047_
*49 _048_
*50 _049_
*51 _050_
*52 _051_
*53 _052_
*54 _053_
*55 _054_
*56 _055_
*57 _056_
*58 _057_
*59 _058_
*60 _059_
*61 _060_
*62 _061_
*63 _062_
*64 _063_
*65 _064_
*66 _065_
*67 _066_
*68 _067_
*69 _068_
*70 _069_
*71 _070_
*72 _071_
*73 _072_
*74 _073_
*75 _074_
*76 _075_
*77 _076_
*78 _077_
*79 _078_
*80 _079_
*81 _080_
*82 _081_
*83 _082_
*84 _083_
*85 _084_
*86 _085_
*87 _086_
*88 _087_
*89 _088_
*90 _089_
*91 _090_
*92 _091_
*93 _092_
*94 _093_
*95 _094_
*96 b[0]
*97 _096_
*98 _097_
*99 _098_
*100 _099_
*101 _100_
*102 a[3]
*103 a[2]
*104 _103_
*105 a[1]
*106 a[0]
*107 _106_
*108 _107_
*109 _108_
*110 _109_
*111 _110_
*112 _111_
*113 _112_
*114 _113_
*115 _114_
*116 _115_
*117 _116_
*118 _117_
*119 _118_
*120 _119_
*121 _120_
*122 _121_
*123 _122_
*124 _123_
*125 _124_
*126 _125_
*127 _126_
*128 _127_
*129 _128_
*130 _129_
*131 _130_
*132 _131_
*133 _132_
*134 _133_
*135 _134_
*136 _135_
*137 _136_
*138 _137_
*139 _138_
*140 _139_
*141 _140_
*142 _141_
*143 _142_
*144 _143_
*145 _144_
*146 _145_
*147 _146_
*148 _147_
*149 _148_
*150 _149_
*151 _150_
*152 _151_
*153 _152_
*154 _153_
*155 _154_
*156 _155_
*157 _156_
*158 _157_
*159 _158_
*160 _159_
*161 _160_
*162 _161_
*163 _162_
*164 _163_
*165 _164_
*166 _165_
*167 _166_
*168 _167_
*169 _168_
*170 _169_
*171 _170_
*172 _171_
*173 _172_
*174 _173_
*175 _174_
*176 _175_
*177 _176_
*178 _177_
*179 _178_
*180 _179_
*181 _180_
*182 _181_
*183 _182_
*184 _183_
*185 _184_
*186 _185_
*187 _186_
*188 _187_
*189 _188_
*190 _189_
*191 _190_
*192 _191_
*193 _192_
*194 _193_
*195 _194_
*196 _195_
*197 _196_
*198 _197_
*199 _198_
*200 _199_
*201 _200_
*202 _201_
*203 _202_
*204 _203_
*205 _204_
*206 _205_
*207 _206_
*208 _207_
*209 _208_
*210 _209_
*211 _210_
*212 _211_
*213 _212_
*214 _213_
*215 _214_
*216 _215_
*217 _216_
*218 _217_
*219 _218_
*220 _219_
*221 _220_
*222 _221_
*223 _222_
*224 _223_
*225 _224_
*226 _225_
*227 _226_
*228 _227_
*229 _228_
*230 _229_
*231 _230_
*232 _231_
*233 _232_
*234 _233_
*235 _234_
*236 _235_
*237 _236_
*238 _237_
*239 _238_
*240 _239_
*241 _240_
*242 _241_
*243 _242_
*244 _243_
*245 _244_
*246 _245_
*247 _246_
*248 _247_
*249 _248_
*250 _249_
*251 _250_
*252 _251_
*253 _252_
*254 _253_
*255 _254_
*256 _255_
*257 _256_
*258 _257_
*259 _258_
*260 _259_
*261 _260_
*262 _261_
*263 _262_
*264 _263_
*265 _264_
*266 _265_
*267 _266_
*268 _267_
*269 _268_
*270 _269_
*271 _270_
*272 _271_
*273 net1
*274 net2
*275 net3
*276 net4
*277 net5
*278 net6
*279 net7
*280 net8
*281 net14
*282 clk
*283 net9
*284 net10
*285 net11
*286 net12
*287 net15
*288 net16
*289 net17
*290 net18
*291 net19
*292 net20
*293 net21
*294 net22
*295 net23
*296 net13
*299 b[1]
*300 b[2]
*301 b[3]
*302 opcode[0]
*303 opcode[1]
*304 opcode[2]
*305 opcode[3]
*306 rst_n
*307 carry_out
*308 overflow
*309 result[0]
*310 result[1]
*311 result[2]
*312 result[3]
*313 result[4]
*314 result[5]
*315 result[6]
*316 result[7]
*317 clknet_0_clk
*318 clknet_1_0__leaf_clk
*319 clknet_1_1__leaf_clk
*320 _272_
*321 _273_
*322 _274_
*323 input5
*324 _276_
*325 _277_
*326 _278_
*327 _279_
*328 _280_
*329 _281_
*330 _282_
*331 input4
*332 input3
*333 _285_
*334 input2
*335 input1
*336 _288_
*337 _289_
*338 _290_
*339 _291_
*340 _292_
*341 _293_
*342 _294_
*343 _295_
*344 _296_
*345 _297_
*346 _298_
*347 _299_
*348 _300_
*349 _301_
*350 _302_
*351 _303_
*352 _304_
*353 _305_
*354 _306_
*355 _307_
*356 _308_
*357 _309_
*358 _310_
*359 _311_
*360 _312_
*361 _313_
*362 _314_
*363 _315_
*364 _316_
*365 _317_
*366 _318_
*367 _319_
*368 _320_
*369 _321_
*370 _322_
*371 _323_
*372 _324_
*373 _325_
*374 _326_
*375 _327_
*376 _328_
*377 _329_
*378 _330_
*379 _331_
*380 _332_
*381 _333_
*382 _334_
*383 _335_
*384 _336_
*385 _337_
*386 _338_
*387 _339_
*388 _340_
*389 _341_
*390 _342_
*391 _343_
*392 _344_
*393 _345_
*394 _346_
*395 _347_
*396 _348_
*397 _349_
*398 _350_
*399 _351_
*400 _352_
*401 _353_
*402 _354_
*403 _355_
*404 _356_
*405 _357_
*406 _358_
*407 _359_
*408 _360_
*409 _361_
*410 _362_
*411 _363_
*412 _364_
*413 _365_
*414 _366_
*415 _367_
*416 _368_
*417 _369_
*418 _370_
*419 _371_
*420 _372_
*421 _373_
*422 _374_
*423 _375_
*424 _376_
*425 _377_
*426 _378_
*427 _379_
*428 _380_
*429 _381_
*430 _382_
*431 _383_
*432 _384_
*433 _385_
*434 _386_
*435 _387_
*436 _388_
*437 _389_
*438 _390_
*439 _391_
*440 _392_
*441 _393_
*442 _394_
*443 _395_
*444 _396_
*445 _397_
*446 _398_
*447 _399_
*448 _400_
*449 _401_
*450 _402_
*451 _403_
*452 _404_
*453 _405_
*454 _406_
*455 _407_
*456 _408_
*457 _409_
*458 _410_
*459 _411_
*460 _412_
*461 _413_
*462 _414_
*463 _415_
*464 _416_
*465 _417_
*466 _418_
*467 _419_
*468 _420_
*469 _421_
*470 _422_
*471 _423_
*472 _424_
*473 _425_
*474 _426_
*475 _427_
*476 _428_
*477 _429_
*478 _430_
*479 _431_
*480 _432_
*481 _433_
*482 _434_
*483 _435_
*484 _436_
*485 _437_
*486 _438_
*487 _439_
*488 _440_
*489 _441_
*490 _442_
*491 _443_
*492 _444_
*493 _445_
*494 _446_
*495 _447_
*496 _448_
*497 _449_
*498 _450_
*499 _451_
*500 _452_
*501 _453_
*502 _454_
*503 _455_
*504 _456_
*505 _457_
*506 _458_
*507 _459_
*508 _460_
*509 _461_
*510 _462_
*511 _463_
*512 _464_
*513 _465_
*514 _466_
*515 _467_
*516 _468_
*517 _469_
*518 _470_
*519 _471_
*520 _472_
*521 _473_
*522 _474_
*523 _475_
*524 _476_
*525 _477_
*526 _478_
*527 _479_
*528 _480_
*529 _481_
*530 _482_
*531 _483_
*532 _484_
*533 _485_
*534 _486_
*535 _487_
*536 _488_
*537 _489_
*538 _490_
*539 _491_
*540 _492_
*541 _493_
*542 _494_
*543 _495_
*544 _496_
*545 _497_
*546 _498_
*547 carry_out_r\$_DFFE_PN0N_
*548 overflow_r\$_DFFE_PN0N_
*549 result_r\[0\]\$_DFF_PN0_
*550 result_r\[1\]\$_DFF_PN0_
*551 result_r\[2\]\$_DFF_PN0_
*552 result_r\[3\]\$_DFF_PN0_
*553 result_r\[4\]\$_DFF_PN0_
*554 result_r\[5\]\$_DFF_PN0_
*555 result_r\[6\]\$_DFF_PN0_
*556 result_r\[7\]\$_DFF_PN0_
*557 TAP_TAPCELL_ROW_0_0
*558 TAP_TAPCELL_ROW_0_1
*559 TAP_TAPCELL_ROW_0_2
*560 TAP_TAPCELL_ROW_0_3
*561 TAP_TAPCELL_ROW_0_4
*562 TAP_TAPCELL_ROW_0_5
*563 TAP_TAPCELL_ROW_0_6
*564 TAP_TAPCELL_ROW_0_7
*565 TAP_TAPCELL_ROW_0_8
*566 TAP_TAPCELL_ROW_0_9
*567 TAP_TAPCELL_ROW_0_10
*568 TAP_TAPCELL_ROW_0_11
*569 TAP_TAPCELL_ROW_0_12
*570 TAP_TAPCELL_ROW_0_13
*571 TAP_TAPCELL_ROW_1_14
*572 TAP_TAPCELL_ROW_1_15
*573 TAP_TAPCELL_ROW_1_16
*574 TAP_TAPCELL_ROW_1_17
*575 TAP_TAPCELL_ROW_1_18
*576 TAP_TAPCELL_ROW_1_19
*577 TAP_TAPCELL_ROW_1_20
*578 TAP_TAPCELL_ROW_2_21
*579 TAP_TAPCELL_ROW_2_22
*580 TAP_TAPCELL_ROW_2_23
*581 TAP_TAPCELL_ROW_2_24
*582 TAP_TAPCELL_ROW_2_25
*583 TAP_TAPCELL_ROW_2_26
*584 TAP_TAPCELL_ROW_2_27
*585 TAP_TAPCELL_ROW_3_28
*586 TAP_TAPCELL_ROW_3_29
*587 TAP_TAPCELL_ROW_3_30
*588 TAP_TAPCELL_ROW_3_31
*589 TAP_TAPCELL_ROW_3_32
*590 TAP_TAPCELL_ROW_3_33
*591 TAP_TAPCELL_ROW_3_34
*592 TAP_TAPCELL_ROW_4_35
*593 TAP_TAPCELL_ROW_4_36
*594 TAP_TAPCELL_ROW_4_37
*595 TAP_TAPCELL_ROW_4_38
*596 TAP_TAPCELL_ROW_4_39
*597 TAP_TAPCELL_ROW_4_40
*598 TAP_TAPCELL_ROW_4_41
*599 TAP_TAPCELL_ROW_5_42
*600 TAP_TAPCELL_ROW_5_43
*601 TAP_TAPCELL_ROW_5_44
*602 TAP_TAPCELL_ROW_5_45
*603 TAP_TAPCELL_ROW_5_46
*604 TAP_TAPCELL_ROW_5_47
*605 TAP_TAPCELL_ROW_5_48
*606 TAP_TAPCELL_ROW_6_49
*607 TAP_TAPCELL_ROW_6_50
*608 TAP_TAPCELL_ROW_6_51
*609 TAP_TAPCELL_ROW_6_52
*610 TAP_TAPCELL_ROW_6_53
*611 TAP_TAPCELL_ROW_6_54
*612 TAP_TAPCELL_ROW_6_55
*613 TAP_TAPCELL_ROW_7_56
*614 TAP_TAPCELL_ROW_7_57
*615 TAP_TAPCELL_ROW_7_58
*616 TAP_TAPCELL_ROW_7_59
*617 TAP_TAPCELL_ROW_7_60
*618 TAP_TAPCELL_ROW_7_61
*619 TAP_TAPCELL_ROW_7_62
*620 TAP_TAPCELL_ROW_8_63
*621 TAP_TAPCELL_ROW_8_64
*622 TAP_TAPCELL_ROW_8_65
*623 TAP_TAPCELL_ROW_8_66
*624 TAP_TAPCELL_ROW_8_67
*625 TAP_TAPCELL_ROW_8_68
*626 TAP_TAPCELL_ROW_8_69
*627 TAP_TAPCELL_ROW_9_70
*628 TAP_TAPCELL_ROW_9_71
*629 TAP_TAPCELL_ROW_9_72
*630 TAP_TAPCELL_ROW_9_73
*631 TAP_TAPCELL_ROW_9_74
*632 TAP_TAPCELL_ROW_9_75
*633 TAP_TAPCELL_ROW_9_76
*634 TAP_TAPCELL_ROW_10_77
*635 TAP_TAPCELL_ROW_10_78
*636 TAP_TAPCELL_ROW_10_79
*637 TAP_TAPCELL_ROW_10_80
*638 TAP_TAPCELL_ROW_10_81
*639 TAP_TAPCELL_ROW_10_82
*640 TAP_TAPCELL_ROW_10_83
*641 TAP_TAPCELL_ROW_11_84
*642 TAP_TAPCELL_ROW_11_85
*643 TAP_TAPCELL_ROW_11_86
*644 TAP_TAPCELL_ROW_11_87
*645 TAP_TAPCELL_ROW_11_88
*646 TAP_TAPCELL_ROW_11_89
*647 TAP_TAPCELL_ROW_11_90
*648 TAP_TAPCELL_ROW_12_91
*649 TAP_TAPCELL_ROW_12_92
*650 TAP_TAPCELL_ROW_12_93
*651 TAP_TAPCELL_ROW_12_94
*652 TAP_TAPCELL_ROW_12_95
*653 TAP_TAPCELL_ROW_12_96
*654 TAP_TAPCELL_ROW_12_97
*655 TAP_TAPCELL_ROW_13_98
*656 TAP_TAPCELL_ROW_13_99
*657 TAP_TAPCELL_ROW_13_100
*658 TAP_TAPCELL_ROW_13_101
*659 TAP_TAPCELL_ROW_13_102
*660 TAP_TAPCELL_ROW_13_103
*661 TAP_TAPCELL_ROW_13_104
*662 TAP_TAPCELL_ROW_14_105
*663 TAP_TAPCELL_ROW_14_106
*664 TAP_TAPCELL_ROW_14_107
*665 TAP_TAPCELL_ROW_14_108
*666 TAP_TAPCELL_ROW_14_109
*667 TAP_TAPCELL_ROW_14_110
*668 TAP_TAPCELL_ROW_14_111
*669 TAP_TAPCELL_ROW_15_112
*670 TAP_TAPCELL_ROW_15_113
*671 TAP_TAPCELL_ROW_15_114
*672 TAP_TAPCELL_ROW_15_115
*673 TAP_TAPCELL_ROW_15_116
*674 TAP_TAPCELL_ROW_15_117
*675 TAP_TAPCELL_ROW_15_118
*676 TAP_TAPCELL_ROW_16_119
*677 TAP_TAPCELL_ROW_16_120
*678 TAP_TAPCELL_ROW_16_121
*679 TAP_TAPCELL_ROW_16_122
*680 TAP_TAPCELL_ROW_16_123
*681 TAP_TAPCELL_ROW_16_124
*682 TAP_TAPCELL_ROW_16_125
*683 TAP_TAPCELL_ROW_17_126
*684 TAP_TAPCELL_ROW_17_127
*685 TAP_TAPCELL_ROW_17_128
*686 TAP_TAPCELL_ROW_17_129
*687 TAP_TAPCELL_ROW_17_130
*688 TAP_TAPCELL_ROW_17_131
*689 TAP_TAPCELL_ROW_17_132
*690 TAP_TAPCELL_ROW_18_133
*691 TAP_TAPCELL_ROW_18_134
*692 TAP_TAPCELL_ROW_18_135
*693 TAP_TAPCELL_ROW_18_136
*694 TAP_TAPCELL_ROW_18_137
*695 TAP_TAPCELL_ROW_18_138
*696 TAP_TAPCELL_ROW_18_139
*697 TAP_TAPCELL_ROW_19_140
*698 TAP_TAPCELL_ROW_19_141
*699 TAP_TAPCELL_ROW_19_142
*700 TAP_TAPCELL_ROW_19_143
*701 TAP_TAPCELL_ROW_19_144
*702 TAP_TAPCELL_ROW_19_145
*703 TAP_TAPCELL_ROW_19_146
*704 TAP_TAPCELL_ROW_20_147
*705 TAP_TAPCELL_ROW_20_148
*706 TAP_TAPCELL_ROW_20_149
*707 TAP_TAPCELL_ROW_20_150
*708 TAP_TAPCELL_ROW_20_151
*709 TAP_TAPCELL_ROW_20_152
*710 TAP_TAPCELL_ROW_20_153
*711 TAP_TAPCELL_ROW_21_154
*712 TAP_TAPCELL_ROW_21_155
*713 TAP_TAPCELL_ROW_21_156
*714 TAP_TAPCELL_ROW_21_157
*715 TAP_TAPCELL_ROW_21_158
*716 TAP_TAPCELL_ROW_21_159
*717 TAP_TAPCELL_ROW_21_160
*718 TAP_TAPCELL_ROW_22_161
*719 TAP_TAPCELL_ROW_22_162
*720 TAP_TAPCELL_ROW_22_163
*721 TAP_TAPCELL_ROW_22_164
*722 TAP_TAPCELL_ROW_22_165
*723 TAP_TAPCELL_ROW_22_166
*724 TAP_TAPCELL_ROW_22_167
*725 TAP_TAPCELL_ROW_23_168
*726 TAP_TAPCELL_ROW_23_169
*727 TAP_TAPCELL_ROW_23_170
*728 TAP_TAPCELL_ROW_23_171
*729 TAP_TAPCELL_ROW_23_172
*730 TAP_TAPCELL_ROW_23_173
*731 TAP_TAPCELL_ROW_23_174
*732 TAP_TAPCELL_ROW_24_175
*733 TAP_TAPCELL_ROW_24_176
*734 TAP_TAPCELL_ROW_24_177
*735 TAP_TAPCELL_ROW_24_178
*736 TAP_TAPCELL_ROW_24_179
*737 TAP_TAPCELL_ROW_24_180
*738 TAP_TAPCELL_ROW_24_181
*739 TAP_TAPCELL_ROW_25_182
*740 TAP_TAPCELL_ROW_25_183
*741 TAP_TAPCELL_ROW_25_184
*742 TAP_TAPCELL_ROW_25_185
*743 TAP_TAPCELL_ROW_25_186
*744 TAP_TAPCELL_ROW_25_187
*745 TAP_TAPCELL_ROW_25_188
*746 TAP_TAPCELL_ROW_26_189
*747 TAP_TAPCELL_ROW_26_190
*748 TAP_TAPCELL_ROW_26_191
*749 TAP_TAPCELL_ROW_26_192
*750 TAP_TAPCELL_ROW_26_193
*751 TAP_TAPCELL_ROW_26_194
*752 TAP_TAPCELL_ROW_26_195
*753 TAP_TAPCELL_ROW_27_196
*754 TAP_TAPCELL_ROW_27_197
*755 TAP_TAPCELL_ROW_27_198
*756 TAP_TAPCELL_ROW_27_199
*757 TAP_TAPCELL_ROW_27_200
*758 TAP_TAPCELL_ROW_27_201
*759 TAP_TAPCELL_ROW_27_202
*760 TAP_TAPCELL_ROW_28_203
*761 TAP_TAPCELL_ROW_28_204
*762 TAP_TAPCELL_ROW_28_205
*763 TAP_TAPCELL_ROW_28_206
*764 TAP_TAPCELL_ROW_28_207
*765 TAP_TAPCELL_ROW_28_208
*766 TAP_TAPCELL_ROW_28_209
*767 TAP_TAPCELL_ROW_29_210
*768 TAP_TAPCELL_ROW_29_211
*769 TAP_TAPCELL_ROW_29_212
*770 TAP_TAPCELL_ROW_29_213
*771 TAP_TAPCELL_ROW_29_214
*772 TAP_TAPCELL_ROW_29_215
*773 TAP_TAPCELL_ROW_29_216
*774 TAP_TAPCELL_ROW_30_217
*775 TAP_TAPCELL_ROW_30_218
*776 TAP_TAPCELL_ROW_30_219
*777 TAP_TAPCELL_ROW_30_220
*778 TAP_TAPCELL_ROW_30_221
*779 TAP_TAPCELL_ROW_30_222
*780 TAP_TAPCELL_ROW_30_223
*781 TAP_TAPCELL_ROW_31_224
*782 TAP_TAPCELL_ROW_31_225
*783 TAP_TAPCELL_ROW_31_226
*784 TAP_TAPCELL_ROW_31_227
*785 TAP_TAPCELL_ROW_31_228
*786 TAP_TAPCELL_ROW_31_229
*787 TAP_TAPCELL_ROW_31_230
*788 TAP_TAPCELL_ROW_32_231
*789 TAP_TAPCELL_ROW_32_232
*790 TAP_TAPCELL_ROW_32_233
*791 TAP_TAPCELL_ROW_32_234
*792 TAP_TAPCELL_ROW_32_235
*793 TAP_TAPCELL_ROW_32_236
*794 TAP_TAPCELL_ROW_32_237
*795 TAP_TAPCELL_ROW_33_238
*796 TAP_TAPCELL_ROW_33_239
*797 TAP_TAPCELL_ROW_33_240
*798 TAP_TAPCELL_ROW_33_241
*799 TAP_TAPCELL_ROW_33_242
*800 TAP_TAPCELL_ROW_33_243
*801 TAP_TAPCELL_ROW_33_244
*802 TAP_TAPCELL_ROW_34_245
*803 TAP_TAPCELL_ROW_34_246
*804 TAP_TAPCELL_ROW_34_247
*805 TAP_TAPCELL_ROW_34_248
*806 TAP_TAPCELL_ROW_34_249
*807 TAP_TAPCELL_ROW_34_250
*808 TAP_TAPCELL_ROW_34_251
*809 TAP_TAPCELL_ROW_35_252
*810 TAP_TAPCELL_ROW_35_253
*811 TAP_TAPCELL_ROW_35_254
*812 TAP_TAPCELL_ROW_35_255
*813 TAP_TAPCELL_ROW_35_256
*814 TAP_TAPCELL_ROW_35_257
*815 TAP_TAPCELL_ROW_35_258
*816 TAP_TAPCELL_ROW_36_259
*817 TAP_TAPCELL_ROW_36_260
*818 TAP_TAPCELL_ROW_36_261
*819 TAP_TAPCELL_ROW_36_262
*820 TAP_TAPCELL_ROW_36_263
*821 TAP_TAPCELL_ROW_36_264
*822 TAP_TAPCELL_ROW_36_265
*823 TAP_TAPCELL_ROW_37_266
*824 TAP_TAPCELL_ROW_37_267
*825 TAP_TAPCELL_ROW_37_268
*826 TAP_TAPCELL_ROW_37_269
*827 TAP_TAPCELL_ROW_37_270
*828 TAP_TAPCELL_ROW_37_271
*829 TAP_TAPCELL_ROW_37_272
*830 TAP_TAPCELL_ROW_38_273
*831 TAP_TAPCELL_ROW_38_274
*832 TAP_TAPCELL_ROW_38_275
*833 TAP_TAPCELL_ROW_38_276
*834 TAP_TAPCELL_ROW_38_277
*835 TAP_TAPCELL_ROW_38_278
*836 TAP_TAPCELL_ROW_38_279
*837 TAP_TAPCELL_ROW_39_280
*838 TAP_TAPCELL_ROW_39_281
*839 TAP_TAPCELL_ROW_39_282
*840 TAP_TAPCELL_ROW_39_283
*841 TAP_TAPCELL_ROW_39_284
*842 TAP_TAPCELL_ROW_39_285
*843 TAP_TAPCELL_ROW_39_286
*844 TAP_TAPCELL_ROW_40_287
*845 TAP_TAPCELL_ROW_40_288
*846 TAP_TAPCELL_ROW_40_289
*847 TAP_TAPCELL_ROW_40_290
*848 TAP_TAPCELL_ROW_40_291
*849 TAP_TAPCELL_ROW_40_292
*850 TAP_TAPCELL_ROW_40_293
*851 TAP_TAPCELL_ROW_41_294
*852 TAP_TAPCELL_ROW_41_295
*853 TAP_TAPCELL_ROW_41_296
*854 TAP_TAPCELL_ROW_41_297
*855 TAP_TAPCELL_ROW_41_298
*856 TAP_TAPCELL_ROW_41_299
*857 TAP_TAPCELL_ROW_41_300
*858 TAP_TAPCELL_ROW_42_301
*859 TAP_TAPCELL_ROW_42_302
*860 TAP_TAPCELL_ROW_42_303
*861 TAP_TAPCELL_ROW_42_304
*862 TAP_TAPCELL_ROW_42_305
*863 TAP_TAPCELL_ROW_42_306
*864 TAP_TAPCELL_ROW_42_307
*865 TAP_TAPCELL_ROW_43_308
*866 TAP_TAPCELL_ROW_43_309
*867 TAP_TAPCELL_ROW_43_310
*868 TAP_TAPCELL_ROW_43_311
*869 TAP_TAPCELL_ROW_43_312
*870 TAP_TAPCELL_ROW_43_313
*871 TAP_TAPCELL_ROW_43_314
*872 TAP_TAPCELL_ROW_44_315
*873 TAP_TAPCELL_ROW_44_316
*874 TAP_TAPCELL_ROW_44_317
*875 TAP_TAPCELL_ROW_44_318
*876 TAP_TAPCELL_ROW_44_319
*877 TAP_TAPCELL_ROW_44_320
*878 TAP_TAPCELL_ROW_44_321
*879 TAP_TAPCELL_ROW_45_322
*880 TAP_TAPCELL_ROW_45_323
*881 TAP_TAPCELL_ROW_45_324
*882 TAP_TAPCELL_ROW_45_325
*883 TAP_TAPCELL_ROW_45_326
*884 TAP_TAPCELL_ROW_45_327
*885 TAP_TAPCELL_ROW_45_328
*886 TAP_TAPCELL_ROW_46_329
*887 TAP_TAPCELL_ROW_46_330
*888 TAP_TAPCELL_ROW_46_331
*889 TAP_TAPCELL_ROW_46_332
*890 TAP_TAPCELL_ROW_46_333
*891 TAP_TAPCELL_ROW_46_334
*892 TAP_TAPCELL_ROW_46_335
*893 TAP_TAPCELL_ROW_47_336
*894 TAP_TAPCELL_ROW_47_337
*895 TAP_TAPCELL_ROW_47_338
*896 TAP_TAPCELL_ROW_47_339
*897 TAP_TAPCELL_ROW_47_340
*898 TAP_TAPCELL_ROW_47_341
*899 TAP_TAPCELL_ROW_47_342
*900 TAP_TAPCELL_ROW_48_343
*901 TAP_TAPCELL_ROW_48_344
*902 TAP_TAPCELL_ROW_48_345
*903 TAP_TAPCELL_ROW_48_346
*904 TAP_TAPCELL_ROW_48_347
*905 TAP_TAPCELL_ROW_48_348
*906 TAP_TAPCELL_ROW_48_349
*907 TAP_TAPCELL_ROW_49_350
*908 TAP_TAPCELL_ROW_49_351
*909 TAP_TAPCELL_ROW_49_352
*910 TAP_TAPCELL_ROW_49_353
*911 TAP_TAPCELL_ROW_49_354
*912 TAP_TAPCELL_ROW_49_355
*913 TAP_TAPCELL_ROW_49_356
*914 TAP_TAPCELL_ROW_50_357
*915 TAP_TAPCELL_ROW_50_358
*916 TAP_TAPCELL_ROW_50_359
*917 TAP_TAPCELL_ROW_50_360
*918 TAP_TAPCELL_ROW_50_361
*919 TAP_TAPCELL_ROW_50_362
*920 TAP_TAPCELL_ROW_50_363
*921 TAP_TAPCELL_ROW_51_364
*922 TAP_TAPCELL_ROW_51_365
*923 TAP_TAPCELL_ROW_51_366
*924 TAP_TAPCELL_ROW_51_367
*925 TAP_TAPCELL_ROW_51_368
*926 TAP_TAPCELL_ROW_51_369
*927 TAP_TAPCELL_ROW_51_370
*928 TAP_TAPCELL_ROW_52_371
*929 TAP_TAPCELL_ROW_52_372
*930 TAP_TAPCELL_ROW_52_373
*931 TAP_TAPCELL_ROW_52_374
*932 TAP_TAPCELL_ROW_52_375
*933 TAP_TAPCELL_ROW_52_376
*934 TAP_TAPCELL_ROW_52_377
*935 TAP_TAPCELL_ROW_53_378
*936 TAP_TAPCELL_ROW_53_379
*937 TAP_TAPCELL_ROW_53_380
*938 TAP_TAPCELL_ROW_53_381
*939 TAP_TAPCELL_ROW_53_382
*940 TAP_TAPCELL_ROW_53_383
*941 TAP_TAPCELL_ROW_53_384
*942 TAP_TAPCELL_ROW_54_385
*943 TAP_TAPCELL_ROW_54_386
*944 TAP_TAPCELL_ROW_54_387
*945 TAP_TAPCELL_ROW_54_388
*946 TAP_TAPCELL_ROW_54_389
*947 TAP_TAPCELL_ROW_54_390
*948 TAP_TAPCELL_ROW_54_391
*949 TAP_TAPCELL_ROW_55_392
*950 TAP_TAPCELL_ROW_55_393
*951 TAP_TAPCELL_ROW_55_394
*952 TAP_TAPCELL_ROW_55_395
*953 TAP_TAPCELL_ROW_55_396
*954 TAP_TAPCELL_ROW_55_397
*955 TAP_TAPCELL_ROW_55_398
*956 TAP_TAPCELL_ROW_56_399
*957 TAP_TAPCELL_ROW_56_400
*958 TAP_TAPCELL_ROW_56_401
*959 TAP_TAPCELL_ROW_56_402
*960 TAP_TAPCELL_ROW_56_403
*961 TAP_TAPCELL_ROW_56_404
*962 TAP_TAPCELL_ROW_56_405
*963 TAP_TAPCELL_ROW_57_406
*964 TAP_TAPCELL_ROW_57_407
*965 TAP_TAPCELL_ROW_57_408
*966 TAP_TAPCELL_ROW_57_409
*967 TAP_TAPCELL_ROW_57_410
*968 TAP_TAPCELL_ROW_57_411
*969 TAP_TAPCELL_ROW_57_412
*970 TAP_TAPCELL_ROW_58_413
*971 TAP_TAPCELL_ROW_58_414
*972 TAP_TAPCELL_ROW_58_415
*973 TAP_TAPCELL_ROW_58_416
*974 TAP_TAPCELL_ROW_58_417
*975 TAP_TAPCELL_ROW_58_418
*976 TAP_TAPCELL_ROW_58_419
*977 TAP_TAPCELL_ROW_59_420
*978 TAP_TAPCELL_ROW_59_421
*979 TAP_TAPCELL_ROW_59_422
*980 TAP_TAPCELL_ROW_59_423
*981 TAP_TAPCELL_ROW_59_424
*982 TAP_TAPCELL_ROW_59_425
*983 TAP_TAPCELL_ROW_59_426
*984 TAP_TAPCELL_ROW_60_427
*985 TAP_TAPCELL_ROW_60_428
*986 TAP_TAPCELL_ROW_60_429
*987 TAP_TAPCELL_ROW_60_430
*988 TAP_TAPCELL_ROW_60_431
*989 TAP_TAPCELL_ROW_60_432
*990 TAP_TAPCELL_ROW_60_433
*991 TAP_TAPCELL_ROW_61_434
*992 TAP_TAPCELL_ROW_61_435
*993 TAP_TAPCELL_ROW_61_436
*994 TAP_TAPCELL_ROW_61_437
*995 TAP_TAPCELL_ROW_61_438
*996 TAP_TAPCELL_ROW_61_439
*997 TAP_TAPCELL_ROW_61_440
*998 TAP_TAPCELL_ROW_62_441
*999 TAP_TAPCELL_ROW_62_442
*1000 TAP_TAPCELL_ROW_62_443
*1001 TAP_TAPCELL_ROW_62_444
*1002 TAP_TAPCELL_ROW_62_445
*1003 TAP_TAPCELL_ROW_62_446
*1004 TAP_TAPCELL_ROW_62_447
*1005 TAP_TAPCELL_ROW_63_448
*1006 TAP_TAPCELL_ROW_63_449
*1007 TAP_TAPCELL_ROW_63_450
*1008 TAP_TAPCELL_ROW_63_451
*1009 TAP_TAPCELL_ROW_63_452
*1010 TAP_TAPCELL_ROW_63_453
*1011 TAP_TAPCELL_ROW_63_454
*1012 TAP_TAPCELL_ROW_64_455
*1013 TAP_TAPCELL_ROW_64_456
*1014 TAP_TAPCELL_ROW_64_457
*1015 TAP_TAPCELL_ROW_64_458
*1016 TAP_TAPCELL_ROW_64_459
*1017 TAP_TAPCELL_ROW_64_460
*1018 TAP_TAPCELL_ROW_64_461
*1019 TAP_TAPCELL_ROW_65_462
*1020 TAP_TAPCELL_ROW_65_463
*1021 TAP_TAPCELL_ROW_65_464
*1022 TAP_TAPCELL_ROW_65_465
*1023 TAP_TAPCELL_ROW_65_466
*1024 TAP_TAPCELL_ROW_65_467
*1025 TAP_TAPCELL_ROW_65_468
*1026 TAP_TAPCELL_ROW_66_469
*1027 TAP_TAPCELL_ROW_66_470
*1028 TAP_TAPCELL_ROW_66_471
*1029 TAP_TAPCELL_ROW_66_472
*1030 TAP_TAPCELL_ROW_66_473
*1031 TAP_TAPCELL_ROW_66_474
*1032 TAP_TAPCELL_ROW_66_475
*1033 TAP_TAPCELL_ROW_67_476
*1034 TAP_TAPCELL_ROW_67_477
*1035 TAP_TAPCELL_ROW_67_478
*1036 TAP_TAPCELL_ROW_67_479
*1037 TAP_TAPCELL_ROW_67_480
*1038 TAP_TAPCELL_ROW_67_481
*1039 TAP_TAPCELL_ROW_67_482
*1040 TAP_TAPCELL_ROW_68_483
*1041 TAP_TAPCELL_ROW_68_484
*1042 TAP_TAPCELL_ROW_68_485
*1043 TAP_TAPCELL_ROW_68_486
*1044 TAP_TAPCELL_ROW_68_487
*1045 TAP_TAPCELL_ROW_68_488
*1046 TAP_TAPCELL_ROW_68_489
*1047 TAP_TAPCELL_ROW_69_490
*1048 TAP_TAPCELL_ROW_69_491
*1049 TAP_TAPCELL_ROW_69_492
*1050 TAP_TAPCELL_ROW_69_493
*1051 TAP_TAPCELL_ROW_69_494
*1052 TAP_TAPCELL_ROW_69_495
*1053 TAP_TAPCELL_ROW_69_496
*1054 TAP_TAPCELL_ROW_70_497
*1055 TAP_TAPCELL_ROW_70_498
*1056 TAP_TAPCELL_ROW_70_499
*1057 TAP_TAPCELL_ROW_70_500
*1058 TAP_TAPCELL_ROW_70_501
*1059 TAP_TAPCELL_ROW_70_502
*1060 TAP_TAPCELL_ROW_70_503
*1061 TAP_TAPCELL_ROW_71_504
*1062 TAP_TAPCELL_ROW_71_505
*1063 TAP_TAPCELL_ROW_71_506
*1064 TAP_TAPCELL_ROW_71_507
*1065 TAP_TAPCELL_ROW_71_508
*1066 TAP_TAPCELL_ROW_71_509
*1067 TAP_TAPCELL_ROW_71_510
*1068 TAP_TAPCELL_ROW_71_511
*1069 TAP_TAPCELL_ROW_71_512
*1070 TAP_TAPCELL_ROW_71_513
*1071 TAP_TAPCELL_ROW_71_514
*1072 TAP_TAPCELL_ROW_71_515
*1073 TAP_TAPCELL_ROW_71_516
*1074 TAP_TAPCELL_ROW_71_517
*1075 input6
*1076 input7
*1077 input8
*1078 input9
*1079 input10
*1080 input11
*1081 input12
*1082 input13
*1083 output14
*1084 output15
*1085 output16
*1086 output17
*1087 output18
*1088 output19
*1089 output20
*1090 output21
*1091 output22
*1092 output23
*1093 clkbuf_0_clk
*1094 clkbuf_1_0__f_clk
*1095 clkbuf_1_1__f_clk
*1096 clkload0
*1097 FILLER_0_0
*1098 FILLER_0_8
*1099 FILLER_0_16
*1100 FILLER_0_24
*1101 FILLER_0_28
*1102 FILLER_0_31
*1103 FILLER_0_39
*1104 FILLER_0_47
*1105 FILLER_0_55
*1106 FILLER_0_59
*1107 FILLER_0_61
*1108 FILLER_0_69
*1109 FILLER_0_77
*1110 FILLER_0_85
*1111 FILLER_0_89
*1112 FILLER_0_91
*1113 FILLER_0_99
*1114 FILLER_0_107
*1115 FILLER_0_115
*1116 FILLER_0_119
*1117 FILLER_0_121
*1118 FILLER_0_129
*1119 FILLER_0_137
*1120 FILLER_0_145
*1121 FILLER_0_149
*1122 FILLER_0_151
*1123 FILLER_0_159
*1124 FILLER_0_167
*1125 FILLER_0_175
*1126 FILLER_0_179
*1127 FILLER_0_181
*1128 FILLER_0_189
*1129 FILLER_0_197
*1130 FILLER_0_205
*1131 FILLER_0_209
*1132 FILLER_0_211
*1133 FILLER_0_219
*1134 FILLER_0_227
*1135 FILLER_0_235
*1136 FILLER_0_239
*1137 FILLER_0_241
*1138 FILLER_0_249
*1139 FILLER_0_257
*1140 FILLER_0_265
*1141 FILLER_0_269
*1142 FILLER_0_271
*1143 FILLER_0_279
*1144 FILLER_0_287
*1145 FILLER_0_295
*1146 FILLER_0_299
*1147 FILLER_0_301
*1148 FILLER_0_309
*1149 FILLER_0_317
*1150 FILLER_0_325
*1151 FILLER_0_329
*1152 FILLER_0_331
*1153 FILLER_0_339
*1154 FILLER_0_347
*1155 FILLER_0_355
*1156 FILLER_0_359
*1157 FILLER_0_361
*1158 FILLER_0_369
*1159 FILLER_0_377
*1160 FILLER_0_385
*1161 FILLER_0_389
*1162 FILLER_0_391
*1163 FILLER_0_399
*1164 FILLER_0_407
*1165 FILLER_0_415
*1166 FILLER_0_419
*1167 FILLER_0_421
*1168 FILLER_0_429
*1169 FILLER_1_0
*1170 FILLER_1_8
*1171 FILLER_1_16
*1172 FILLER_1_24
*1173 FILLER_1_32
*1174 FILLER_1_40
*1175 FILLER_1_48
*1176 FILLER_1_56
*1177 FILLER_1_61
*1178 FILLER_1_69
*1179 FILLER_1_77
*1180 FILLER_1_85
*1181 FILLER_1_93
*1182 FILLER_1_101
*1183 FILLER_1_109
*1184 FILLER_1_117
*1185 FILLER_1_119
*1186 FILLER_1_121
*1187 FILLER_1_129
*1188 FILLER_1_137
*1189 FILLER_1_145
*1190 FILLER_1_153
*1191 FILLER_1_161
*1192 FILLER_1_169
*1193 FILLER_1_177
*1194 FILLER_1_179
*1195 FILLER_1_181
*1196 FILLER_1_189
*1197 FILLER_1_197
*1198 FILLER_1_205
*1199 FILLER_1_213
*1200 FILLER_1_221
*1201 FILLER_1_229
*1202 FILLER_1_237
*1203 FILLER_1_239
*1204 FILLER_1_241
*1205 FILLER_1_249
*1206 FILLER_1_257
*1207 FILLER_1_265
*1208 FILLER_1_273
*1209 FILLER_1_281
*1210 FILLER_1_289
*1211 FILLER_1_297
*1212 FILLER_1_299
*1213 FILLER_1_301
*1214 FILLER_1_309
*1215 FILLER_1_317
*1216 FILLER_1_325
*1217 FILLER_1_333
*1218 FILLER_1_341
*1219 FILLER_1_349
*1220 FILLER_1_357
*1221 FILLER_1_359
*1222 FILLER_1_361
*1223 FILLER_1_369
*1224 FILLER_1_377
*1225 FILLER_1_385
*1226 FILLER_1_393
*1227 FILLER_1_401
*1228 FILLER_1_409
*1229 FILLER_1_417
*1230 FILLER_1_419
*1231 FILLER_1_421
*1232 FILLER_1_429
*1233 FILLER_2_0
*1234 FILLER_2_8
*1235 FILLER_2_16
*1236 FILLER_2_24
*1237 FILLER_2_28
*1238 FILLER_2_31
*1239 FILLER_2_39
*1240 FILLER_2_47
*1241 FILLER_2_55
*1242 FILLER_2_63
*1243 FILLER_2_71
*1244 FILLER_2_79
*1245 FILLER_2_87
*1246 FILLER_2_89
*1247 FILLER_2_91
*1248 FILLER_2_99
*1249 FILLER_2_107
*1250 FILLER_2_115
*1251 FILLER_2_123
*1252 FILLER_2_131
*1253 FILLER_2_139
*1254 FILLER_2_147
*1255 FILLER_2_149
*1256 FILLER_2_151
*1257 FILLER_2_159
*1258 FILLER_2_167
*1259 FILLER_2_175
*1260 FILLER_2_183
*1261 FILLER_2_191
*1262 FILLER_2_199
*1263 FILLER_2_207
*1264 FILLER_2_209
*1265 FILLER_2_211
*1266 FILLER_2_219
*1267 FILLER_2_227
*1268 FILLER_2_235
*1269 FILLER_2_243
*1270 FILLER_2_251
*1271 FILLER_2_259
*1272 FILLER_2_267
*1273 FILLER_2_269
*1274 FILLER_2_271
*1275 FILLER_2_279
*1276 FILLER_2_287
*1277 FILLER_2_295
*1278 FILLER_2_303
*1279 FILLER_2_311
*1280 FILLER_2_319
*1281 FILLER_2_327
*1282 FILLER_2_329
*1283 FILLER_2_331
*1284 FILLER_2_339
*1285 FILLER_2_347
*1286 FILLER_2_355
*1287 FILLER_2_363
*1288 FILLER_2_371
*1289 FILLER_2_379
*1290 FILLER_2_387
*1291 FILLER_2_389
*1292 FILLER_2_391
*1293 FILLER_2_399
*1294 FILLER_2_407
*1295 FILLER_2_415
*1296 FILLER_2_423
*1297 FILLER_3_0
*1298 FILLER_3_8
*1299 FILLER_3_16
*1300 FILLER_3_24
*1301 FILLER_3_32
*1302 FILLER_3_40
*1303 FILLER_3_48
*1304 FILLER_3_56
*1305 FILLER_3_61
*1306 FILLER_3_69
*1307 FILLER_3_77
*1308 FILLER_3_85
*1309 FILLER_3_93
*1310 FILLER_3_101
*1311 FILLER_3_109
*1312 FILLER_3_117
*1313 FILLER_3_119
*1314 FILLER_3_121
*1315 FILLER_3_129
*1316 FILLER_3_137
*1317 FILLER_3_145
*1318 FILLER_3_153
*1319 FILLER_3_161
*1320 FILLER_3_169
*1321 FILLER_3_177
*1322 FILLER_3_179
*1323 FILLER_3_181
*1324 FILLER_3_189
*1325 FILLER_3_197
*1326 FILLER_3_205
*1327 FILLER_3_213
*1328 FILLER_3_221
*1329 FILLER_3_229
*1330 FILLER_3_237
*1331 FILLER_3_239
*1332 FILLER_3_241
*1333 FILLER_3_249
*1334 FILLER_3_257
*1335 FILLER_3_265
*1336 FILLER_3_273
*1337 FILLER_3_281
*1338 FILLER_3_289
*1339 FILLER_3_297
*1340 FILLER_3_299
*1341 FILLER_3_301
*1342 FILLER_3_309
*1343 FILLER_3_317
*1344 FILLER_3_325
*1345 FILLER_3_333
*1346 FILLER_3_341
*1347 FILLER_3_349
*1348 FILLER_3_357
*1349 FILLER_3_359
*1350 FILLER_3_361
*1351 FILLER_3_369
*1352 FILLER_3_377
*1353 FILLER_3_385
*1354 FILLER_3_393
*1355 FILLER_3_401
*1356 FILLER_3_409
*1357 FILLER_3_417
*1358 FILLER_3_419
*1359 FILLER_3_421
*1360 FILLER_3_429
*1361 FILLER_4_0
*1362 FILLER_4_8
*1363 FILLER_4_16
*1364 FILLER_4_24
*1365 FILLER_4_28
*1366 FILLER_4_31
*1367 FILLER_4_39
*1368 FILLER_4_47
*1369 FILLER_4_55
*1370 FILLER_4_63
*1371 FILLER_4_71
*1372 FILLER_4_79
*1373 FILLER_4_87
*1374 FILLER_4_89
*1375 FILLER_4_91
*1376 FILLER_4_99
*1377 FILLER_4_107
*1378 FILLER_4_115
*1379 FILLER_4_123
*1380 FILLER_4_131
*1381 FILLER_4_139
*1382 FILLER_4_147
*1383 FILLER_4_149
*1384 FILLER_4_151
*1385 FILLER_4_159
*1386 FILLER_4_167
*1387 FILLER_4_175
*1388 FILLER_4_183
*1389 FILLER_4_191
*1390 FILLER_4_199
*1391 FILLER_4_207
*1392 FILLER_4_209
*1393 FILLER_4_211
*1394 FILLER_4_219
*1395 FILLER_4_227
*1396 FILLER_4_235
*1397 FILLER_4_243
*1398 FILLER_4_251
*1399 FILLER_4_259
*1400 FILLER_4_267
*1401 FILLER_4_269
*1402 FILLER_4_271
*1403 FILLER_4_279
*1404 FILLER_4_287
*1405 FILLER_4_295
*1406 FILLER_4_303
*1407 FILLER_4_311
*1408 FILLER_4_319
*1409 FILLER_4_327
*1410 FILLER_4_329
*1411 FILLER_4_331
*1412 FILLER_4_339
*1413 FILLER_4_347
*1414 FILLER_4_355
*1415 FILLER_4_363
*1416 FILLER_4_371
*1417 FILLER_4_379
*1418 FILLER_4_387
*1419 FILLER_4_389
*1420 FILLER_4_391
*1421 FILLER_4_399
*1422 FILLER_4_407
*1423 FILLER_4_415
*1424 FILLER_4_423
*1425 FILLER_5_0
*1426 FILLER_5_8
*1427 FILLER_5_16
*1428 FILLER_5_24
*1429 FILLER_5_32
*1430 FILLER_5_40
*1431 FILLER_5_48
*1432 FILLER_5_56
*1433 FILLER_5_61
*1434 FILLER_5_69
*1435 FILLER_5_77
*1436 FILLER_5_85
*1437 FILLER_5_93
*1438 FILLER_5_101
*1439 FILLER_5_109
*1440 FILLER_5_117
*1441 FILLER_5_119
*1442 FILLER_5_121
*1443 FILLER_5_129
*1444 FILLER_5_137
*1445 FILLER_5_145
*1446 FILLER_5_153
*1447 FILLER_5_161
*1448 FILLER_5_169
*1449 FILLER_5_177
*1450 FILLER_5_179
*1451 FILLER_5_181
*1452 FILLER_5_189
*1453 FILLER_5_197
*1454 FILLER_5_205
*1455 FILLER_5_213
*1456 FILLER_5_221
*1457 FILLER_5_229
*1458 FILLER_5_237
*1459 FILLER_5_239
*1460 FILLER_5_241
*1461 FILLER_5_249
*1462 FILLER_5_257
*1463 FILLER_5_265
*1464 FILLER_5_273
*1465 FILLER_5_281
*1466 FILLER_5_289
*1467 FILLER_5_297
*1468 FILLER_5_299
*1469 FILLER_5_301
*1470 FILLER_5_309
*1471 FILLER_5_317
*1472 FILLER_5_325
*1473 FILLER_5_333
*1474 FILLER_5_341
*1475 FILLER_5_349
*1476 FILLER_5_357
*1477 FILLER_5_359
*1478 FILLER_5_361
*1479 FILLER_5_369
*1480 FILLER_5_377
*1481 FILLER_5_385
*1482 FILLER_5_393
*1483 FILLER_5_401
*1484 FILLER_5_409
*1485 FILLER_5_417
*1486 FILLER_5_419
*1487 FILLER_5_421
*1488 FILLER_5_429
*1489 FILLER_6_0
*1490 FILLER_6_8
*1491 FILLER_6_16
*1492 FILLER_6_24
*1493 FILLER_6_28
*1494 FILLER_6_31
*1495 FILLER_6_39
*1496 FILLER_6_47
*1497 FILLER_6_55
*1498 FILLER_6_63
*1499 FILLER_6_71
*1500 FILLER_6_79
*1501 FILLER_6_87
*1502 FILLER_6_89
*1503 FILLER_6_91
*1504 FILLER_6_99
*1505 FILLER_6_107
*1506 FILLER_6_115
*1507 FILLER_6_123
*1508 FILLER_6_131
*1509 FILLER_6_139
*1510 FILLER_6_147
*1511 FILLER_6_149
*1512 FILLER_6_151
*1513 FILLER_6_159
*1514 FILLER_6_167
*1515 FILLER_6_175
*1516 FILLER_6_183
*1517 FILLER_6_191
*1518 FILLER_6_199
*1519 FILLER_6_207
*1520 FILLER_6_209
*1521 FILLER_6_211
*1522 FILLER_6_219
*1523 FILLER_6_227
*1524 FILLER_6_235
*1525 FILLER_6_243
*1526 FILLER_6_251
*1527 FILLER_6_259
*1528 FILLER_6_267
*1529 FILLER_6_269
*1530 FILLER_6_271
*1531 FILLER_6_279
*1532 FILLER_6_287
*1533 FILLER_6_295
*1534 FILLER_6_303
*1535 FILLER_6_311
*1536 FILLER_6_319
*1537 FILLER_6_327
*1538 FILLER_6_329
*1539 FILLER_6_331
*1540 FILLER_6_339
*1541 FILLER_6_347
*1542 FILLER_6_355
*1543 FILLER_6_363
*1544 FILLER_6_371
*1545 FILLER_6_379
*1546 FILLER_6_387
*1547 FILLER_6_389
*1548 FILLER_6_391
*1549 FILLER_6_399
*1550 FILLER_6_407
*1551 FILLER_6_415
*1552 FILLER_6_423
*1553 FILLER_7_0
*1554 FILLER_7_8
*1555 FILLER_7_16
*1556 FILLER_7_24
*1557 FILLER_7_32
*1558 FILLER_7_40
*1559 FILLER_7_48
*1560 FILLER_7_56