*SPEF "ieee 1481-1999"
*DESIGN "lfsr8"
*DATE "06:36:22 Tuesday July 07, 2026"
*VENDOR "The OpenROAD Project"
*PROGRAM "OpenROAD"
*VERSION "26Q1-1392-g93cb34c5d4"
*DESIGN_FLOW "NAME_SCOPE LOCAL" "PIN_CAP NONE"
*DIVIDER /
*DELIMITER :
*BUS_DELIMITER []
*T_UNIT 1 NS
*C_UNIT 1 PF
*R_UNIT 1 OHM
*L_UNIT 1 HENRY

*NAME_MAP
*1 _00_
*2 _01_
*3 _02_
*4 _03_
*5 _04_
*6 _05_
*7 _06_
*8 _07_
*9 en
*10 _09_
*11 _10_
*12 _11_
*13 _12_
*14 clk
*15 net1
*16 net2
*17 net3
*18 net4
*19 net5
*20 net6
*21 net7
*22 net8
*23 net9
*24 net10
*27 rst_n
*28 state[0]
*29 state[1]
*30 state[2]
*31 state[3]
*32 state[4]
*33 state[5]
*34 state[6]
*35 state[7]
*36 clknet_0_clk
*37 clknet_1_0__leaf_clk
*38 clknet_1_1__leaf_clk
*39 input1
*40 _14_
*41 _15_
*42 _16_
*43 _17_
*44 _18_
*45 _19_
*46 _20_
*47 _21_
*48 _22_
*49 _23_
*50 _24_
*51 _25_
*52 state\[0\]\$_DFFE_PN1P_
*53 state\[1\]\$_DFFE_PN1P_
*54 state\[2\]\$_DFFE_PN1P_
*55 state\[3\]\$_DFFE_PN1P_
*56 state\[4\]\$_DFFE_PN1P_
*57 state\[5\]\$_DFFE_PN1P_
*58 state\[6\]\$_DFFE_PN1P_
*59 state\[7\]\$_DFFE_PN1P_
*60 TAP_TAPCELL_ROW_0_0
*61 TAP_TAPCELL_ROW_0_1
*62 TAP_TAPCELL_ROW_0_2
*63 TAP_TAPCELL_ROW_0_3
*64 TAP_TAPCELL_ROW_0_4
*65 TAP_TAPCELL_ROW_1_5
*66 TAP_TAPCELL_ROW_1_6
*67 TAP_TAPCELL_ROW_2_7
*68 TAP_TAPCELL_ROW_2_8
*69 TAP_TAPCELL_ROW_2_9
*70 TAP_TAPCELL_ROW_3_10
*71 TAP_TAPCELL_ROW_3_11
*72 TAP_TAPCELL_ROW_4_12
*73 TAP_TAPCELL_ROW_4_13
*74 TAP_TAPCELL_ROW_4_14
*75 TAP_TAPCELL_ROW_5_15
*76 TAP_TAPCELL_ROW_5_16
*77 TAP_TAPCELL_ROW_6_17
*78 TAP_TAPCELL_ROW_6_18
*79 TAP_TAPCELL_ROW_6_19
*80 TAP_TAPCELL_ROW_7_20
*81 TAP_TAPCELL_ROW_7_21
*82 TAP_TAPCELL_ROW_8_22
*83 TAP_TAPCELL_ROW_8_23
*84 TAP_TAPCELL_ROW_8_24
*85 TAP_TAPCELL_ROW_9_25
*86 TAP_TAPCELL_ROW_9_26
*87 TAP_TAPCELL_ROW_10_27
*88 TAP_TAPCELL_ROW_10_28
*89 TAP_TAPCELL_ROW_10_29
*90 TAP_TAPCELL_ROW_11_30
*91 TAP_TAPCELL_ROW_11_31
*92 TAP_TAPCELL_ROW_12_32
*93 TAP_TAPCELL_ROW_12_33
*94 TAP_TAPCELL_ROW_12_34
*95 TAP_TAPCELL_ROW_13_35
*96 TAP_TAPCELL_ROW_13_36
*97 TAP_TAPCELL_ROW_14_37
*98 TAP_TAPCELL_ROW_14_38
*99 TAP_TAPCELL_ROW_14_39
*100 TAP_TAPCELL_ROW_15_40
*101 TAP_TAPCELL_ROW_15_41
*102 TAP_TAPCELL_ROW_16_42
*103 TAP_TAPCELL_ROW_16_43
*104 TAP_TAPCELL_ROW_16_44
*105 TAP_TAPCELL_ROW_17_45
*106 TAP_TAPCELL_ROW_17_46
*107 TAP_TAPCELL_ROW_18_47
*108 TAP_TAPCELL_ROW_18_48
*109 TAP_TAPCELL_ROW_18_49
*110 TAP_TAPCELL_ROW_19_50
*111 TAP_TAPCELL_ROW_19_51
*112 TAP_TAPCELL_ROW_20_52
*113 TAP_TAPCELL_ROW_20_53
*114 TAP_TAPCELL_ROW_20_54
*115 TAP_TAPCELL_ROW_21_55
*116 TAP_TAPCELL_ROW_21_56
*117 TAP_TAPCELL_ROW_22_57
*118 TAP_TAPCELL_ROW_22_58
*119 TAP_TAPCELL_ROW_22_59
*120 TAP_TAPCELL_ROW_23_60
*121 TAP_TAPCELL_ROW_23_61
*122 TAP_TAPCELL_ROW_24_62
*123 TAP_TAPCELL_ROW_24_63
*124 TAP_TAPCELL_ROW_24_64
*125 TAP_TAPCELL_ROW_25_65
*126 TAP_TAPCELL_ROW_25_66
*127 TAP_TAPCELL_ROW_26_67
*128 TAP_TAPCELL_ROW_26_68
*129 TAP_TAPCELL_ROW_26_69
*130 TAP_TAPCELL_ROW_27_70
*131 TAP_TAPCELL_ROW_27_71
*132 TAP_TAPCELL_ROW_28_72
*133 TAP_TAPCELL_ROW_28_73
*134 TAP_TAPCELL_ROW_28_74
*135 TAP_TAPCELL_ROW_28_75
*136 TAP_TAPCELL_ROW_28_76
*137 input2
*138 output3
*139 output4
*140 output5
*141 output6
*142 output7
*143 output8
*144 output9
*145 output10
*146 clkbuf_0_clk
*147 clkbuf_1_0__f_clk
*148 clkbuf_1_1__f_clk
*149 FILLER_0_0
*150 FILLER_0_8
*151 FILLER_0_16
*152 FILLER_0_24
*153 FILLER_0_28
*154 FILLER_0_31
*155 FILLER_0_39
*156 FILLER_0_47
*157 FILLER_0_55
*158 FILLER_0_59
*159 FILLER_0_61
*160 FILLER_0_69
*161 FILLER_0_77
*162 FILLER_0_85
*163 FILLER_0_89
*164 FILLER_0_91
*165 FILLER_0_99
*166 FILLER_0_107
*167 FILLER_0_115
*168 FILLER_0_119
*169 FILLER_0_121
*170 FILLER_0_129
*171 FILLER_0_137
*172 FILLER_0_145
*173 FILLER_0_149
*174 FILLER_0_151
*175 FILLER_0_159
*176 FILLER_0_167
*177 FILLER_0_175
*178 FILLER_1_0
*179 FILLER_1_8
*180 FILLER_1_16
*181 FILLER_1_24
*182 FILLER_1_32
*183 FILLER_1_40
*184 FILLER_1_48
*185 FILLER_1_56
*186 FILLER_1_61
*187 FILLER_1_69
*188 FILLER_1_77
*189 FILLER_1_85
*190 FILLER_1_93
*191 FILLER_1_101
*192 FILLER_1_109
*193 FILLER_1_117
*194 FILLER_1_119
*195 FILLER_1_121
*196 FILLER_1_129
*197 FILLER_1_137
*198 FILLER_1_145
*199 FILLER_1_153
*200 FILLER_1_161
*201 FILLER_1_169
*202 FILLER_2_0
*203 FILLER_2_8
*204 FILLER_2_16
*205 FILLER_2_24
*206 FILLER_2_28
*207 FILLER_2_31
*208 FILLER_2_39
*209 FILLER_2_47
*210 FILLER_2_55
*211 FILLER_2_63
*212 FILLER_2_71
*213 FILLER_2_79
*214 FILLER_2_87
*215 FILLER_2_89
*216 FILLER_2_91
*217 FILLER_2_99
*218 FILLER_2_107
*219 FILLER_2_115
*220 FILLER_2_123
*221 FILLER_2_131
*222 FILLER_2_139
*223 FILLER_2_147
*224 FILLER_2_149
*225 FILLER_2_151
*226 FILLER_2_159
*227 FILLER_2_167
*228 FILLER_2_175
*229 FILLER_3_0
*230 FILLER_3_8
*231 FILLER_3_16
*232 FILLER_3_24
*233 FILLER_3_32
*234 FILLER_3_40
*235 FILLER_3_48
*236 FILLER_3_56
*237 FILLER_3_61
*238 FILLER_3_69
*239 FILLER_3_77
*240 FILLER_3_85
*241 FILLER_3_93
*242 FILLER_3_101
*243 FILLER_3_109
*244 FILLER_3_117
*245 FILLER_3_119
*246 FILLER_3_121
*247 FILLER_3_129
*248 FILLER_3_137
*249 FILLER_3_145
*250 FILLER_3_153
*251 FILLER_3_161
*252 FILLER_3_169
*253 FILLER_4_0
*254 FILLER_4_8
*255 FILLER_4_16
*256 FILLER_4_24
*257 FILLER_4_28
*258 FILLER_4_31
*259 FILLER_4_39
*260 FILLER_4_47
*261 FILLER_4_55
*262 FILLER_4_63
*263 FILLER_4_71
*264 FILLER_4_79
*265 FILLER_4_87
*266 FILLER_4_89
*267 FILLER_4_91
*268 FILLER_4_99
*269 FILLER_4_107
*270 FILLER_4_115
*271 FILLER_4_123
*272 FILLER_4_131
*273 FILLER_4_139
*274 FILLER_4_147
*275 FILLER_4_149
*276 FILLER_4_151
*277 FILLER_4_159
*278 FILLER_4_167
*279 FILLER_4_175
*280 FILLER_5_0
*281 FILLER_5_8
*282 FILLER_5_16
*283 FILLER_5_24
*284 FILLER_5_32
*285 FILLER_5_40
*286 FILLER_5_48
*287 FILLER_5_56
*288 FILLER_5_61
*289 FILLER_5_69
*290 FILLER_5_77
*291 FILLER_5_85
*292 FILLER_5_93
*293 FILLER_5_101
*294 FILLER_5_109
*295 FILLER_5_117
*296 FILLER_5_119
*297 FILLER_5_121
*298 FILLER_5_129
*299 FILLER_5_137
*300 FILLER_5_145
*301 FILLER_5_153
*302 FILLER_5_161
*303 FILLER_5_169
*304 FILLER_6_0
*305 FILLER_6_8
*306 FILLER_6_16
*307 FILLER_6_24
*308 FILLER_6_28
*309 FILLER_6_31
*310 FILLER_6_39
*311 FILLER_6_47
*312 FILLER_6_55
*313 FILLER_6_63
*314 FILLER_6_71
*315 FILLER_6_79
*316 FILLER_6_87
*317 FILLER_6_89
*318 FILLER_6_91
*319 FILLER_6_99
*320 FILLER_6_107
*321 FILLER_6_115
*322 FILLER_6_123
*323 FILLER_6_131
*324 FILLER_6_139
*325 FILLER_6_147
*326 FILLER_6_149
*327 FILLER_6_151
*328 FILLER_6_159
*329 FILLER_6_167
*330 FILLER_6_175
*331 FILLER_7_0
*332 FILLER_7_8
*333 FILLER_7_16
*334 FILLER_7_24
*335 FILLER_7_32
*336 FILLER_7_40
*337 FILLER_7_48
*338 FILLER_7_56
*339 FILLER_7_61
*340 FILLER_7_69
*341 FILLER_7_77
*342 FILLER_7_85
*343 FILLER_7_93
*344 FILLER_7_101
*345 FILLER_7_109
*346 FILLER_7_117
*347 FILLER_7_119
*348 FILLER_7_121
*349 FILLER_7_129
*350 FILLER_7_137
*351 FILLER_7_145
*352 FILLER_7_153
*353 FILLER_7_161
*354 FILLER_7_169
*355 FILLER_8_0
*356 FILLER_8_8
*357 FILLER_8_16
*358 FILLER_8_24
*359 FILLER_8_28
*360 FILLER_8_31
*361 FILLER_8_39
*362 FILLER_8_47
*363 FILLER_8_55
*364 FILLER_8_63
*365 FILLER_8_71
*366 FILLER_8_79
*367 FILLER_8_87
*368 FILLER_8_89
*369 FILLER_8_91
*370 FILLER_8_99
*371 FILLER_8_107
*372 FILLER_8_115
*373 FILLER_8_123
*374 FILLER_8_131
*375 FILLER_8_139
*376 FILLER_8_147
*377 FILLER_8_149
*378 FILLER_8_151
*379 FILLER_8_159
*380 FILLER_8_167
*381 FILLER_8_175
*382 FILLER_9_0
*383 FILLER_9_8
*384 FILLER_9_16
*385 FILLER_9_24
*386 FILLER_9_32
*387 FILLER_9_40
*388 FILLER_9_48
*389 FILLER_9_56
*390 FILLER_9_61
*391 FILLER_9_69
*392 FILLER_9_77
*393 FILLER_9_85
*394 FILLER_9_93
*395 FILLER_9_101
*396 FILLER_9_109
*397 FILLER_9_117
*398 FILLER_9_119
*399 FILLER_9_121
*400 FILLER_9_129
*401 FILLER_9_137
*402 FILLER_9_145
*403 FILLER_9_153
*404 FILLER_9_161
*405 FILLER_9_169
*406 FILLER_10_0
*407 FILLER_10_8
*408 FILLER_10_16
*409 FILLER_10_24
*410 FILLER_10_28
*411 FILLER_10_31
*412 FILLER_10_39
*413 FILLER_10_47
*414 FILLER_10_55
*415 FILLER_10_63
*416 FILLER_10_71
*417 FILLER_10_79
*418 FILLER_10_87
*419 FILLER_10_89
*420 FILLER_10_91
*421 FILLER_10_99
*422 FILLER_10_107
*423 FILLER_10_115
*424 FILLER_10_123
*425 FILLER_10_131
*426 FILLER_10_139
*427 FILLER_10_147
*428 FILLER_10_149
*429 FILLER_10_151
*430 FILLER_10_159
*431 FILLER_10_167
*432 FILLER_10_175
*433 FILLER_11_0
*434 FILLER_11_8
*435 FILLER_11_12
*436 FILLER_11_14
*437 FILLER_11_26
*438 FILLER_11_34
*439 FILLER_11_42
*440 FILLER_11_46
*441 FILLER_11_51
*442 FILLER_11_59
*443 FILLER_11_61
*444 FILLER_11_69
*445 FILLER_11_77
*446 FILLER_11_85
*447 FILLER_11_93
*448 FILLER_11_101
*449 FILLER_11_109
*450 FILLER_11_117
*451 FILLER_11_119
*452 FILLER_11_121
*453 FILLER_11_129
*454 FILLER_11_137
*455 FILLER_11_145
*456 FILLER_11_153
*457 FILLER_11_161
*458 FILLER_11_169
*459 FILLER_12_0
*460 FILLER_12_8
*461 FILLER_12_31
*462 FILLER_12_73
*463 FILLER_12_81
*464 FILLER_12_89
*465 FILLER_12_91
*466 FILLER_12_99
*467 FILLER_12_107
*468 FILLER_12_115
*469 FILLER_12_123
*470 FILLER_12_131
*471 FILLER_12_139
*472 FILLER_12_147
*473 FILLER_12_149
*474 FILLER_12_151
*475 FILLER_12_159
*476 FILLER_12_167
*477 FILLER_12_175
*478 FILLER_13_16
*479 FILLER_13_61
*480 FILLER_13_71
*481 FILLER_13_79
*482 FILLER_13_87
*483 FILLER_13_95
*484 FILLER_13_97
*485 FILLER_13_114
*486 FILLER_13_118
*487 FILLER_13_121
*488 FILLER_13_129
*489 FILLER_13_137
*490 FILLER_13_145
*491 FILLER_13_153
*492 FILLER_13_161
*493 FILLER_13_169
*494 FILLER_14_0
*495 FILLER_14_51
*496 FILLER_14_73
*497 FILLER_14_81
*498 FILLER_14_91
*499 FILLER_14_103
*500 FILLER_14_111
*501 FILLER_14_119
*502 FILLER_14_127
*503 FILLER_14_135
*504 FILLER_14_143
*505 FILLER_14_147
*506 FILLER_14_149
*507 FILLER_14_151
*508 FILLER_14_159
*509 FILLER_14_167
*510 FILLER_14_175
*511 FILLER_15_0
*512 FILLER_15_12
*513 FILLER_15_72
*514 FILLER_15_80
*515 FILLER_15_82
*516 FILLER_15_91
*517 FILLER_15_99
*518 FILLER_15_107
*519 FILLER_15_115
*520 FILLER_15_119
*521 FILLER_15_121
*522 FILLER_15_129
*523 FILLER_15_137
*524 FILLER_15_145
*525 FILLER_15_153
*526 FILLER_15_161
*527 FILLER_15_169
*528 FILLER_16_0
*529 FILLER_16_8
*530 FILLER_16_19
*531 FILLER_16_27
*532 FILLER_16_29
*533 FILLER_16_31
*534 FILLER_16_35
*535 FILLER_16_71
*536 FILLER_16_79
*537 FILLER_16_87
*538 FILLER_16_89
*539 FILLER_16_91
*540 FILLER_16_99
*541 FILLER_16_107
*542 FILLER_16_115
*543 FILLER_16_123
*544 FILLER_16_131
*545 FILLER_16_139
*546 FILLER_16_147
*547 FILLER_16_149
*548 FILLER_16_151
*549 FILLER_16_159
*550 FILLER_16_167
*551 FILLER_16_175
*552 FILLER_17_0
*553 FILLER_17_8
*554 FILLER_17_16
*555 FILLER_17_24
*556 FILLER_17_32
*557 FILLER_17_40
*558 FILLER_17_48
*559 FILLER_17_50
*560 FILLER_17_61
*561 FILLER_17_69
*562 FILLER_17_77
*563 FILLER_17_85
*564 FILLER_17_93
*565 FILLER_17_101
*566 FILLER_17_109
*567 FILLER_17_117
*568 FILLER_17_119
*569 FILLER_17_121
*570 FILLER_17_129
*571 FILLER_17_137
*572 FILLER_17_145
*573 FILLER_17_153
*574 FILLER_17_161
*575 FILLER_17_169
*576 FILLER_18_0
*577 FILLER_18_8
*578 FILLER_18_16
*579 FILLER_18_24
*580 FILLER_18_28
*581 FILLER_18_31
*582 FILLER_18_39
*583 FILLER_18_47
*584 FILLER_18_55
*585 FILLER_18_63
*586 FILLER_18_71
*587 FILLER_18_79
*588 FILLER_18_87
*589 FILLER_18_89
*590 FILLER_18_91
*591 FILLER_18_99
*592 FILLER_18_107
*593 FILLER_18_115
*594 FILLER_18_123
*595 FILLER_18_131
*596 FILLER_18_139
*597 FILLER_18_147
*598 FILLER_18_149
*599 FILLER_18_151
*600 FILLER_18_159
*601 FILLER_18_167
*602 FILLER_18_175
*603 FILLER_19_0
*604 FILLER_19_8
*605 FILLER_19_16
*606 FILLER_19_24
*607 FILLER_19_32
*608 FILLER_19_40
*609 FILLER_19_48
*610 FILLER_19_56
*611 FILLER_19_61
*612 FILLER_19_69
*613 FILLER_19_77
*614 FILLER_19_85
*615 FILLER_19_93
*616 FILLER_19_101
*617 FILLER_19_109
*618 FILLER_19_117
*619 FILLER_19_119
*620 FILLER_19_121
*621 FILLER_19_129
*622 FILLER_19_137
*623 FILLER_19_145
*624 FILLER_19_153
*625 FILLER_19_161
*626 FILLER_19_169
*627 FILLER_20_0
*628 FILLER_20_8
*629 FILLER_20_16
*630 FILLER_20_24
*631 FILLER_20_28
*632 FILLER_20_31
*633 FILLER_20_39
*634 FILLER_20_47
*635 FILLER_20_55
*636 FILLER_20_63
*637 FILLER_20_71
*638 FILLER_20_79
*639 FILLER_20_87
*640 FILLER_20_89
*641 FILLER_20_91
*642 FILLER_20_99
*643 FILLER_20_107
*644 FILLER_20_115
*645 FILLER_20_123
*646 FILLER_20_131
*647 FILLER_20_139
*648 FILLER_20_147
*649 FILLER_20_149
*650 FILLER_20_151
*651 FILLER_20_159
*652 FILLER_20_167
*653 FILLER_20_175
*654 FILLER_21_0
*655 FILLER_21_8
*656 FILLER_21_16
*657 FILLER_21_24
*658 FILLER_21_32
*659 FILLER_21_40
*660 FILLER_21_48
*661 FILLER_21_56
*662 FILLER_21_61
*663 FILLER_21_69
*664 FILLER_21_77
*665 FILLER_21_85
*666 FILLER_21_93
*667 FILLER_21_101
*668 FILLER_21_109
*669 FILLER_21_117
*670 FILLER_21_119
*671 FILLER_21_121
*672 FILLER_21_129
*673 FILLER_21_137
*674 FILLER_21_145
*675 FILLER_21_153
*676 FILLER_21_161
*677 FILLER_21_169
*678 FILLER_22_0
*679 FILLER_22_8
*680 FILLER_22_16
*681 FILLER_22_24
*682 FILLER_22_28
*683 FILLER_22_31
*684 FILLER_22_39
*685 FILLER_22_47
*686 FILLER_22_55
*687 FILLER_22_63
*688 FILLER_22_71
*689 FILLER_22_79
*690 FILLER_22_87
*691 FILLER_22_89
*692 FILLER_22_91
*693 FILLER_22_99
*694 FILLER_22_107
*695 FILLER_22_115
*696 FILLER_22_123
*697 FILLER_22_131
*698 FILLER_22_139
*699 FILLER_22_147
*700 FILLER_22_149
*701 FILLER_22_151
*702 FILLER_22_159
*703 FILLER_22_167
*704 FILLER_22_175
*705 FILLER_23_0
*706 FILLER_23_8
*707 FILLER_23_16
*708 FILLER_23_24
*709 FILLER_23_32
*710 FILLER_23_40
*711 FILLER_23_48
*712 FILLER_23_56
*713 FILLER_23_61
*714 FILLER_23_69
*715 FILLER_23_77
*716 FILLER_23_85
*717 FILLER_23_93
*718 FILLER_23_101
*719 FILLER_23_109
*720 FILLER_23_117
*721 FILLER_23_119
*722 FILLER_23_121
*723 FILLER_23_129
*724 FILLER_23_137
*725 FILLER_23_145
*726 FILLER_23_153
*727 FILLER_23_161
*728 FILLER_23_169
*729 FILLER_24_0
*730 FILLER_24_8
*731 FILLER_24_16
*732 FILLER_24_24
*733 FILLER_24_28
*734 FILLER_24_31
*735 FILLER_24_39
*736 FILLER_24_47
*737 FILLER_24_55
*738 FILLER_24_63
*739 FILLER_24_71
*740 FILLER_24_79
*741 FILLER_24_87
*742 FILLER_24_89
*743 FILLER_24_91
*744 FILLER_24_99
*745 FILLER_24_107
*746 FILLER_24_115
*747 FILLER_24_123
*748 FILLER_24_131
*749 FILLER_24_139
*750 FILLER_24_147
*751 FILLER_24_149
*752 FILLER_24_151
*753 FILLER_24_159
*754 FILLER_24_167
*755 FILLER_24_175
*756 FILLER_25_0
*757 FILLER_25_8
*758 FILLER_25_16
*759 FILLER_25_24
*760 FILLER_25_32
*761 FILLER_25_40
*762 FILLER_25_48
*763 FILLER_25_56
*764 FILLER_25_61
*765 FILLER_25_69
*766 FILLER_25_77
*767 FILLER_25_85
*768 FILLER_25_93
*769 FILLER_25_101
*770 FILLER_25_109
*771 FILLER_25_117
*772 FILLER_25_119
*773 FILLER_25_121
*774 FILLER_25_129
*775 FILLER_25_137
*776 FILLER_25_145
*777 FILLER_25_153
*778 FILLER_25_161
*779 FILLER_25_169
*780 FILLER_26_0
*781 FILLER_26_8
*782 FILLER_26_16
*783 FILLER_26_24
*784 FILLER_26_28
*785 FILLER_26_31
*786 FILLER_26_39
*787 FILLER_26_47
*788 FILLER_26_55
*789 FILLER_26_63
*790 FILLER_26_71
*791 FILLER_26_79
*792 FILLER_26_87
*793 FILLER_26_89
*794 FILLER_26_91
*795 FILLER_26_99
*796 FILLER_26_107
*797 FILLER_26_115
*798 FILLER_26_123
*799 FILLER_26_131
*800 FILLER_26_139
*801 FILLER_26_147
*802 FILLER_26_149
*803 FILLER_26_151
*804 FILLER_26_159
*805 FILLER_26_167
*806 FILLER_26_175
*807 FILLER_27_0
*808 FILLER_27_8
*809 FILLER_27_16
*810 FILLER_27_24
*811 FILLER_27_32
*812 FILLER_27_40
*813 FILLER_27_48
*814 FILLER_27_56
*815 FILLER_27_61
*816 FILLER_27_69
*817 FILLER_27_77
*818 FILLER_27_85
*819 FILLER_27_93
*820 FILLER_27_101
*821 FILLER_27_109
*822 FILLER_27_117
*823 FILLER_27_119
*824 FILLER_27_121
*825 FILLER_27_129
*826 FILLER_27_137
*827 FILLER_27_145
*828 FILLER_27_153
*829 FILLER_27_161
*830 FILLER_27_169
*831 FILLER_28_0
*832 FILLER_28_8
*833 FILLER_28_16
*834 FILLER_28_24
*835 FILLER_28_28
*836 FILLER_28_31
*837 FILLER_28_39
*838 FILLER_28_47
*839 FILLER_28_55
*840 FILLER_28_59
*841 FILLER_28_61
*842 FILLER_28_69
*843 FILLER_28_77
*844 FILLER_28_85
*845 FILLER_28_89
*846 FILLER_28_91
*847 FILLER_28_99
*848 FILLER_28_107
*849 FILLER_28_115
*850 FILLER_28_119
*851 FILLER_28_121
*852 FILLER_28_129
*853 FILLER_28_137
*854 FILLER_28_145
*855 FILLER_28_149
*856 FILLER_28_151
*857 FILLER_28_159
*858 FILLER_28_167
*859 FILLER_28_175

*PORTS
clk I
en I
rst_n I
state[0] O
state[1] O
state[2] O
state[3] O
state[4] O
state[5] O
state[6] O
state[7] O

*D_NET *1 0.000682159
*CONN
*I *52:D I *D sky130_fd_sc_hd__dfstp_2
*I *44:Y O *D sky130_fd_sc_hd__a21oi_1
*CAP
1 *52:D 0.000239671
2 *44:Y 0.000239671
3 *52:D *48:A1 3.14978e-05
4 *52:D *15:22 1.79807e-05
5 *52:D *15:55 1.78514e-05
6 *52:D *20:44 9.63981e-05
7 *52:D *21:12 3.90891e-05
*RES
1 *44:Y *52:D 32.6874 
*END

*D_NET *2 0.000695998
*CONN
*I *53:D I *D sky130_fd_sc_hd__dfstp_2
*I *45:X O *D sky130_fd_sc_hd__mux2_1
*CAP
1 *53:D 0.000286535
2 *45:X 0.000286535
3 *53:D *45:A0 6.93171e-05
4 *53:D *45:A1 1.41976e-05
5 *53:D *15:72 3.94136e-05
*RES
1 *45:X *53:D 32.6874 
*END

*D_NET *3 0.000632162
*CONN
*I *54:D I *D sky130_fd_sc_hd__dfstp_2
*I *46:X O *D sky130_fd_sc_hd__mux2_1
*CAP
1 *54:D 0.000162319
2 *46:X 0.000162319
3 *54:D *43:A 0.000122098
4 *54:D *54:SET_B 5.04879e-05
5 *54:D *20:44 0.000134938
*RES
1 *46:X *54:D 33.242 
*END

*D_NET *4 0.000471424
*CONN
*I *55:D I *D sky130_fd_sc_hd__dfstp_2
*I *47:X O *D sky130_fd_sc_hd__mux2_1
*CAP
1 *55:D 0.000208023
2 *47:X 0.000208023
3 *55:D *47:S 5.53789e-05
*RES
1 *47:X *55:D 31.5781 
*END

*D_NET *5 0.00138044
*CONN
*I *56:D I *D sky130_fd_sc_hd__dfstp_2
*I *48:X O *D sky130_fd_sc_hd__mux2_2
*CAP
1 *56:D 0.000470298
2 *48:X 0.000470298
3 *56:D state[4] 7.00991e-05
4 *56:D *23:14 0.000344242
5 *56:D *23:31 8.13812e-06
6 *56:D *37:32 1.73636e-05
*RES
1 *48:X *56:D 36.015 
*END

*D_NET *6 0.00202311
*CONN
*I *57:D I *D sky130_fd_sc_hd__dfstp_2
*I *49:X O *D sky130_fd_sc_hd__mux2_2
*CAP
1 *57:D 0.000646984
2 *49:X 0.000646984
3 *57:D state[4] 3.17474e-05
4 *57:D *49:A0 0.000122337
5 *57:D *145:A 0.000116505
6 *57:D *24:27 0.00045855
*RES
1 *49:X *57:D 39.3426 
*END

*D_NET *7 0.000997668
*CONN
*I *58:D I *D sky130_fd_sc_hd__dfstp_2
*I *50:X O *D sky130_fd_sc_hd__mux2_2
*CAP
1 *58:D 0.000443546
2 *50:X 0.000443546
3 *58:D *59:D 4.7798e-05
4 *58:D *59:SET_B 6.27782e-05
5 *58:D *59:CLK 0
6 *58:D *144:A 0
7 *58:D *23:14 0
8 *58:D *23:31 0
*RES
1 *50:X *58:D 37.5282 
*END

*D_NET *8 0.000790581
*CONN
*I *59:D I *D sky130_fd_sc_hd__dfstp_2
*I *51:X O *D sky130_fd_sc_hd__mux2_2
*CAP
1 *59:D 0.000336221
2 *51:X 0.000336221
3 *59:D state[7] 2.56225e-05
4 *59:D *51:A1 0
5 *59:D *143:A 0
6 *59:D *145:A 4.47179e-05
7 *58:D *59:D 4.7798e-05
*RES
1 *51:X *59:D 36.0066 
*END

*D_NET *9 0.00476792
*CONN
*P en I
*I *39:A I *D sky130_fd_sc_hd__clkdlybuf4s50_1
*CAP
1 en 8.08324e-05
2 *39:A 0
3 *9:13 0.0022527
4 *9:11 0.00233354
5 *9:13 *15:12 0.000100847
*RES
1 en *9:11 9.55634 
2 *9:11 *9:13 53.9653 
3 *9:13 *39:A 9.24915 
*END

*D_NET *10 0.00188858
*CONN
*I *42:A I *D sky130_fd_sc_hd__xnor2_1
*I *40:Y O *D sky130_fd_sc_hd__xnor2_1
*CAP
1 *42:A 0.00037057
2 *40:Y 0.00037057
3 *42:A *54:CLK 5.59308e-05
4 *42:A *55:CLK 2.83033e-05
5 *42:A *142:A 0.000219822
6 *42:A *15:22 9.60216e-05
7 *42:A *15:55 0.000280225
8 *42:A *15:68 0.000185159
9 *42:A *15:104 0.000177431
10 *42:A *21:40 9.68122e-05
11 *42:A *38:21 7.74044e-06
*RES
1 *40:Y *42:A 41.4048 
*END

*D_NET *11 0.000165198
*CONN
*I *42:B I *D sky130_fd_sc_hd__xnor2_1
*I *41:Y O *D sky130_fd_sc_hd__xnor2_1
*CAP
1 *42:B 6.63466e-05
2 *41:Y 6.63466e-05
3 *42:B *15:104 3.25052e-05
*RES
1 *41:Y *42:B 20.355 
*END

*D_NET *12 0.00178529
*CONN
*I *44:A2 I *D sky130_fd_sc_hd__a21oi_1
*I *42:Y O *D sky130_fd_sc_hd__xnor2_1
*CAP
1 *44:A2 0.000552885
2 *42:Y 0.000552885
3 *44:A2 *43:A 0
4 *44:A2 *54:CLK 0.000374863
5 *44:A2 *55:CLK 6.93171e-05
6 *44:A2 *15:22 0
7 *44:A2 *36:45 0
8 *44:A2 *38:21 0.000235343
*RES
1 *42:Y *44:A2 41.4048 
*END

*D_NET *13 0.00030873
*CONN
*I *44:B1 I *D sky130_fd_sc_hd__a21oi_1
*I *43:Y O *D sky130_fd_sc_hd__nor2_1
*CAP
1 *44:B1 9.65252e-05
2 *43:Y 9.65252e-05
3 *44:B1 *43:B 2.22788e-05
4 *44:B1 *44:A1 6.50586e-05
5 *44:B1 *15:22 1.77537e-06
6 *44:B1 *20:44 2.65667e-05
*RES
1 *43:Y *44:B1 30.0537 
*END

*D_NET *14 0.00291602
*CONN
*P clk I
*I *146:A I *D sky130_fd_sc_hd__clkbuf_8
*CAP
1 clk 0.00132153
2 *146:A 0
3 *14:10 0.00132153
4 *14:10 state[4] 0
5 *14:10 state[7] 0.000272951
6 *14:10 *57:SET_B 0
*RES
1 clk *14:10 10.225 
2 *14:10 *146:A 13.7491 
*END

*D_NET *15 0.0115843
*CONN
*I *46:S I *D sky130_fd_sc_hd__mux2_1
*I *50:S I *D sky130_fd_sc_hd__mux2_2
*I *51:S I *D sky130_fd_sc_hd__mux2_2
*I *47:S I *D sky130_fd_sc_hd__mux2_1
*I *45:S I *D sky130_fd_sc_hd__mux2_1
*I *49:S I *D sky130_fd_sc_hd__mux2_2
*I *44:A1 I *D sky130_fd_sc_hd__a21oi_1
*I *48:S I *D sky130_fd_sc_hd__mux2_2
*I *43:B I *D sky130_fd_sc_hd__nor2_1
*I *39:X O *D sky130_fd_sc_hd__clkdlybuf4s50_1
*CAP
1 *46:S 0
2 *50:S 0.000110303
3 *51:S 4.19556e-05
4 *47:S 0.000277119
5 *45:S 4.3368e-05
6 *49:S 0.000113409
7 *44:A1 0.000169127
8 *48:S 0.000124983
9 *43:B 0.00019814
10 *39:X 0.00104038
11 *15:104 0.000787101
12 *15:72 0.000445816
13 *15:68 0.000877833
14 *15:55 0.000385824
15 *15:37 0.00029411
16 *15:22 0.000317704
17 *15:20 0.000831052
18 *15:12 0.00159711
19 *44:A1 *54:CLK 4.30017e-06
20 *44:A1 *20:44 2.35709e-05
21 *45:S *45:A1 4.02349e-05
22 *45:S *38:8 2.29888e-05
23 *47:S *47:A1 6.78549e-05
24 *48:S *40:A 0.000175485
25 *48:S *48:A1 4.82966e-05
26 *48:S *20:44 4.33655e-05
27 *49:S *49:A0 6.08467e-05
28 *50:S state[4] 2.14842e-06
29 *50:S *51:A1 0.000112897
30 *51:S *51:A0 7.19887e-05
31 *51:S *51:A1 0.000112361
32 *15:12 *46:A1 0.000194692
33 *15:12 *47:A1 2.53347e-05
34 *15:12 *19:10 2.97152e-05
35 *15:12 *20:30 0
36 *15:12 *38:8 3.44254e-06
37 *15:20 *52:SET_B 0.000114078
38 *15:20 *138:A 0.000119996
39 *15:20 *16:79 0.000527903
40 *15:22 *54:CLK 0
41 *15:22 *21:12 0
42 *15:55 *57:SET_B 0
43 *15:55 *21:12 0
44 *15:72 state[4] 3.96696e-05
45 *15:72 *57:CLK 0.000206696
46 *15:72 *142:A 0.000107496
47 *15:72 *38:8 0.000291677
48 *15:104 *51:A0 0.000389967
49 *42:A *15:22 9.60216e-05
50 *42:A *15:55 0.000280225
51 *42:A *15:68 0.000185159
52 *42:A *15:104 0.000177431
53 *42:B *15:104 3.25052e-05
54 *44:A2 *15:22 0
55 *44:B1 *43:B 2.22788e-05
56 *44:B1 *44:A1 6.50586e-05
57 *44:B1 *15:22 1.77537e-06
58 *52:D *15:22 1.79807e-05
59 *52:D *15:55 1.78514e-05
60 *53:D *15:72 3.94136e-05
61 *55:D *47:S 5.53789e-05
62 *9:13 *15:12 0.000100847
*RES
1 *39:X *15:12 36.6037 
2 *15:12 *15:20 18.0275 
3 *15:20 *15:22 3.07775 
4 *15:22 *43:B 17.8531 
5 *15:22 *15:37 4.5 
6 *15:37 *48:S 13.3002 
7 *15:37 *44:A1 12.2151 
8 *15:20 *15:55 5.15401 
9 *15:55 *49:S 16.1605 
10 *15:55 *15:68 3.493 
11 *15:68 *15:72 10.2148 
12 *15:72 *45:S 11.13 
13 *15:72 *47:S 25.1205 
14 *15:68 *15:104 21.3357 
15 *15:104 *51:S 11.0817 
16 *15:104 *50:S 20.9116 
17 *15:12 *46:S 9.24915 
*END

*D_NET *16 0.00615955
*CONN
*I *55:SET_B I *D sky130_fd_sc_hd__dfstp_2
*I *53:SET_B I *D sky130_fd_sc_hd__dfstp_2
*I *54:SET_B I *D sky130_fd_sc_hd__dfstp_2
*I *52:SET_B I *D sky130_fd_sc_hd__dfstp_2
*I *57:SET_B I *D sky130_fd_sc_hd__dfstp_2
*I *56:SET_B I *D sky130_fd_sc_hd__dfstp_2
*I *58:SET_B I *D sky130_fd_sc_hd__dfstp_2
*I *59:SET_B I *D sky130_fd_sc_hd__dfstp_2
*I *137:X O *D sky130_fd_sc_hd__clkdlybuf4s50_1
*CAP
1 *55:SET_B 0.000179505
2 *53:SET_B 0
3 *54:SET_B 0.000152849
4 *52:SET_B 0.000407393
5 *57:SET_B 0.000243511
6 *56:SET_B 6.53135e-05
7 *58:SET_B 0.000231363
8 *59:SET_B 0.000363486
9 *137:X 0.000253928
10 *16:88 0.000242657
11 *16:79 0.000329905
12 *16:48 0.000602313
13 *16:25 0.000340922
14 *52:SET_B *52:CLK 0.000154986
15 *52:SET_B *21:8 4.9933e-05
16 *52:SET_B *21:40 0.000138107
17 *54:SET_B *43:A 3.54002e-05
18 *54:SET_B *19:10 5.96936e-05
19 *55:SET_B *45:A1 0.000183119
20 *55:SET_B *47:A1 0.000153685
21 *55:SET_B *19:19 1.72644e-05
22 *55:SET_B *36:45 1.83278e-05
23 *57:SET_B *21:12 0
24 *57:SET_B *24:27 0.000183809
25 *57:SET_B *36:15 1.11499e-05
26 *58:SET_B state[4] 1.18938e-05
27 *58:SET_B *23:14 2.20702e-05
28 *58:SET_B *37:8 2.36813e-05
29 *58:SET_B *37:12 2.52414e-06
30 *58:SET_B *37:32 6.74667e-05
31 *59:SET_B *143:A 8.08839e-05
32 *59:SET_B *23:31 8.44703e-05
33 *16:25 state[4] 3.40034e-05
34 *16:25 *145:A 2.63292e-05
35 *16:48 *52:CLK 0.000175485
36 *16:48 *21:8 0
37 *16:79 *138:A 4.88955e-05
38 *16:79 *17:6 0.000114584
39 *16:79 *17:21 0.000103983
40 *16:88 *43:A 2.53624e-06
41 *16:88 *45:A1 0.000124988
42 *16:88 *19:10 2.22342e-05
43 *16:88 *19:19 3.96504e-05
44 *54:D *54:SET_B 5.04879e-05
45 *58:D *59:SET_B 6.27782e-05
46 *14:10 *57:SET_B 0
47 *15:20 *52:SET_B 0.000114078
48 *15:20 *16:79 0.000527903
49 *15:55 *57:SET_B 0
*RES
1 *137:X *59:SET_B 25.2386 
2 *59:SET_B *16:25 7.94085 
3 *16:25 *58:SET_B 10.4324 
4 *16:25 *56:SET_B 4.5 
5 *56:SET_B *16:48 2.32692 
6 *16:48 *57:SET_B 16.2303 
7 *16:48 *52:SET_B 10.1396 
8 *52:SET_B *16:79 10.7091 
9 *16:79 *54:SET_B 8.82351 
10 *16:79 *16:88 2.6625 
11 *16:88 *53:SET_B 4.5 
12 *16:88 *55:SET_B 11.315 
*END

*D_NET *17 0.00542936
*CONN
*I *138:A I *D sky130_fd_sc_hd__clkdlybuf4s50_1
*I *45:A1 I *D sky130_fd_sc_hd__mux2_1
*I *43:A I *D sky130_fd_sc_hd__nor2_1
*I *52:Q O *D sky130_fd_sc_hd__dfstp_2
*CAP
1 *138:A 0.000631237
2 *45:A1 0.000339487
3 *43:A 0.00055091
4 *52:Q 4.44799e-05
5 *17:21 0.00101323
6 *17:6 0.000637894
7 *45:A1 *36:45 8.50556e-05
8 *45:A1 *38:8 4.97262e-05
9 *138:A *141:A 0.00116731
10 *44:A2 *43:A 0
11 *45:S *45:A1 4.02349e-05
12 *53:D *45:A1 1.41976e-05
13 *54:D *43:A 0.000122098
14 *54:SET_B *43:A 3.54002e-05
15 *55:SET_B *45:A1 0.000183119
16 *15:20 *138:A 0.000119996
17 *16:79 *138:A 4.88955e-05
18 *16:79 *17:6 0.000114584
19 *16:79 *17:21 0.000103983
20 *16:88 *43:A 2.53624e-06
21 *16:88 *45:A1 0.000124988
*RES
1 *52:Q *17:6 10.5271 
2 *17:6 *43:A 31.7489 
3 *17:6 *17:21 1.278 
4 *17:21 *45:A1 28.4481 
5 *17:21 *138:A 29.5766 
*END

*D_NET *18 0.00369498
*CONN
*I *139:A I *D sky130_fd_sc_hd__clkdlybuf4s50_1
*I *46:A1 I *D sky130_fd_sc_hd__mux2_1
*I *45:A0 I *D sky130_fd_sc_hd__mux2_1
*I *53:Q O *D sky130_fd_sc_hd__dfstp_2
*CAP
1 *139:A 0.000455368
2 *46:A1 6.28072e-05
3 *45:A0 0.000611688
4 *53:Q 0.000607631
5 *18:6 0.000826758
6 *45:A0 *140:A 1.03403e-05
7 *46:A1 *47:A1 7.88662e-05
8 *46:A1 *19:10 1.07248e-05
9 *46:A1 *19:19 0.000124192
10 *139:A *140:A 0.000508066
11 *139:A *30:12 8.64219e-05
12 *18:6 *140:A 4.81101e-05
13 *53:D *45:A0 6.93171e-05
14 *15:12 *46:A1 0.000194692
*RES
1 *53:Q *18:6 11.6364 
2 *18:6 *45:A0 27.7357 
3 *18:6 *46:A1 21.7421 
4 *53:Q *139:A 32.0017 
*END

*D_NET *19 0.0042619
*CONN
*I *47:A1 I *D sky130_fd_sc_hd__mux2_1
*I *140:A I *D sky130_fd_sc_hd__clkdlybuf4s50_1
*I *46:A0 I *D sky130_fd_sc_hd__mux2_1
*I *54:Q O *D sky130_fd_sc_hd__dfstp_2
*CAP
1 *47:A1 0.000497638
2 *140:A 0.000301368
3 *46:A0 0
4 *54:Q 0.000278468
5 *19:19 0.000846591
6 *19:10 0.000326053
7 *47:A1 *47:A0 0.000534347
8 *19:10 *20:44 0.0002817
9 *45:A0 *140:A 1.03403e-05
10 *46:A1 *47:A1 7.88662e-05
11 *46:A1 *19:10 1.07248e-05
12 *46:A1 *19:19 0.000124192
13 *47:S *47:A1 6.78549e-05
14 *54:SET_B *19:10 5.96936e-05
15 *55:SET_B *47:A1 0.000153685
16 *55:SET_B *19:19 1.72644e-05
17 *139:A *140:A 0.000508066
18 *15:12 *47:A1 2.53347e-05
19 *15:12 *19:10 2.97152e-05
20 *16:88 *19:10 2.22342e-05
21 *16:88 *19:19 3.96504e-05
22 *18:6 *140:A 4.81101e-05
*RES
1 *54:Q *19:10 20.184 
2 *19:10 *46:A0 13.7491 
3 *19:10 *19:19 2.24725 
4 *19:19 *140:A 22.7916 
5 *19:19 *47:A1 30.0163 
*END

*D_NET *20 0.00816399
*CONN
*I *141:A I *D sky130_fd_sc_hd__clkdlybuf4s50_1
*I *40:B I *D sky130_fd_sc_hd__xnor2_1
*I *48:A1 I *D sky130_fd_sc_hd__mux2_2
*I *47:A0 I *D sky130_fd_sc_hd__mux2_1
*I *55:Q O *D sky130_fd_sc_hd__dfstp_2
*CAP
1 *141:A 0.00047806
2 *40:B 0
3 *48:A1 0.000101237
4 *47:A0 0.000488803
5 *55:Q 0.00107171
6 *20:44 0.00111392
7 *20:30 0.00207365
8 *48:A1 *40:A 0.000171288
9 *48:A1 *48:A0 0.00012771
10 *141:A state[2] 7.49459e-05
11 *141:A *28:10 3.14978e-05
12 *20:44 *54:CLK 4.31703e-05
13 *44:A1 *20:44 2.35709e-05
14 *44:B1 *20:44 2.65667e-05
15 *47:A1 *47:A0 0.000534347
16 *48:S *48:A1 4.82966e-05
17 *48:S *20:44 4.33655e-05
18 *52:D *48:A1 3.14978e-05
19 *52:D *20:44 9.63981e-05
20 *54:D *20:44 0.000134938
21 *138:A *141:A 0.00116731
22 *15:12 *20:30 0
23 *19:10 *20:44 0.0002817
*RES
1 *55:Q *47:A0 39.7873 
2 *55:Q *20:30 26.9673 
3 *20:30 *20:44 26.9835 
4 *20:44 *48:A1 13.7342 
5 *20:44 *40:B 9.24915 
6 *20:30 *141:A 31.1348 
*END

*D_NET *21 0.00339534
*CONN
*I *142:A I *D sky130_fd_sc_hd__clkdlybuf4s50_1
*I *49:A1 I *D sky130_fd_sc_hd__mux2_2
*I *48:A0 I *D sky130_fd_sc_hd__mux2_2
*I *40:A I *D sky130_fd_sc_hd__xnor2_1
*I *56:Q O *D sky130_fd_sc_hd__dfstp_2
*CAP
1 *142:A 0.000155495
2 *49:A1 0
3 *48:A0 8.65874e-05
4 *40:A 7.77272e-05
5 *56:Q 9.71204e-05
6 *21:40 0.000488441
7 *21:12 0.00031981
8 *21:8 0.000585562
9 *142:A state[4] 0.000255248
10 *142:A *54:CLK 2.33654e-05
11 *142:A *57:CLK 6.69404e-05
12 *142:A *38:21 7.44384e-05
13 *21:40 *54:CLK 3.88648e-05
14 *42:A *142:A 0.000219822
15 *42:A *21:40 9.68122e-05
16 *48:A1 *40:A 0.000171288
17 *48:A1 *48:A0 0.00012771
18 *48:S *40:A 0.000175485
19 *52:D *21:12 3.90891e-05
20 *52:SET_B *21:8 4.9933e-05
21 *52:SET_B *21:40 0.000138107
22 *57:SET_B *21:12 0
23 *15:22 *21:12 0
24 *15:55 *21:12 0
25 *15:72 *142:A 0.000107496
26 *16:48 *21:8 0
*RES
1 *56:Q *21:8 11.1059 
2 *21:8 *21:12 8.40826 
3 *21:12 *40:A 16.5832 
4 *21:12 *48:A0 16.1605 
5 *21:8 *21:40 10.9376 
6 *21:40 *49:A1 13.7491 
7 *21:40 *142:A 21.0145 
*END

*D_NET *22 0.00518534
*CONN
*I *41:A I *D sky130_fd_sc_hd__xnor2_1
*I *49:A0 I *D sky130_fd_sc_hd__mux2_2
*I *50:A1 I *D sky130_fd_sc_hd__mux2_2
*I *143:A I *D sky130_fd_sc_hd__clkdlybuf4s50_1
*I *57:Q O *D sky130_fd_sc_hd__dfstp_2
*CAP
1 *41:A 0.00013632
2 *49:A0 0.000251333
3 *50:A1 0
4 *143:A 0.000588156
5 *57:Q 9.93775e-05
6 *22:34 0.000387652
7 *22:12 0.00131183
8 *22:6 0.000823053
9 *41:A *24:27 0.000225493
10 *49:A0 *24:27 8.96342e-05
11 *49:A0 *36:8 4.89392e-05
12 *143:A state[5] 0.000134843
13 *143:A state[6] 0.000156905
14 *143:A state[7] 3.32746e-05
15 *143:A *59:CLK 9.99386e-06
16 *143:A *137:A 0.000110282
17 *143:A *144:A 0.000122378
18 *22:6 state[4] 7.20028e-05
19 *22:12 state[4] 0.000282649
20 *22:12 *57:CLK 3.71542e-05
21 *49:S *49:A0 6.08467e-05